                                   MODFLOW 6
                U.S. GEOLOGICAL SURVEY MODULAR HYDROLOGIC MODEL
                          GROUNDWATER FLOW MODEL (GWF)
                   VERSION 6.4.0 release candidate 07/06/2022
                               ***DEVELOP MODE***

   MODFLOW 6 compiled Jul 06 2022 19:38:41 with Intel(R) Fortran Intel(R) 64
   Compiler Classic for applications running on Intel(R) 64, Version 2021.6.0
                             Build 20220226_000000

This software is preliminary or provisional and is subject to 
revision. It is being provided to meet the need for timely best 
science. The software has not received final approval by the U.S. 
Geological Survey (USGS). No warranty, expressed or implied, is made 
by the USGS or the U.S. Government as to the functionality of the 
software and related material nor shall the fact of release 
constitute any such warranty. The software is provided on the 
condition that neither the USGS nor the U.S. Government shall be held 
liable for any damages resulting from the authorized or unauthorized 
use of the software.


As a work of the United States Government, this USGS product is 
in the public domain within the United States. You can copy, 
modify, distribute, and perform the work, even for commercial 
purposes, all without asking permission. Additionally, USGS 
waives copyright and related rights in the work worldwide 
through CC0 1.0 Universal Public Domain Dedication 
(https://creativecommons.org/publicdomain/zero/1.0/).

The following GNU Lesser General Public License (LGPL) libraries
are used in this USGS product:

    SPARSKIT version 2.0
      ilut, luson, and qsplit 
      (https://www-users.cse.umn.edu/~saad/software/SPARSKIT/)

    RCM - Reverse Cuthill McKee Ordering
      (https://people.math.sc.edu/Burkardt/f_src/rcm/rcm.html)

    BLAS - Basic Linear Algebra Subprograms Level 1
      (https://people.math.sc.edu/Burkardt/f_src/blas1_d/blas1_d.html)

    SPARSEKIT - Sparse Matrix Utility Package
      amux, dperm, dvperm, rperm, and cperm
      (https://people.sc.fsu.edu/~jburkardt/f77_src/sparsekit/sparsekit.html)

The following BSD-3 License libraries are used in this USGS product:

    Modern Fortran DAG Library
      Copyright (c) 2018, Jacob Williams
      All rights reserved.
      (https://github.com/jacobwilliams/daglib)

MODFLOW 6 compiler options: /Isrc\libmf6core.a.p /Isrc /I..\src
/Isrc\libmf6_external.a.p /MTd /nologo /warn:general /warn:truncated_source
/stand:f08 /Zi /traceback /O2 /Zi /fpe:0 /heap-arrays:0 /traceback /fpp
/Qdiag-disable:7416 /Qdiag-disable:7025 /Qdiag-disable:5268
/Fdsrc\libmf6core.a.p\Utilities_compilerversion.F90.pdb
/module:src\libmf6core.a.p
/Fosrc/libmf6core.a.p/Utilities_compilerversion.F90.obj /c

System command used to initiate simulation:
d:\Workspace\hugm0001\anaconda\python.exe -m ipykernel_launcher --ip=127.0.0.1 --stdin=9028 --control=9026 --hb=9025 "--Session.signature_scheme=\"hmac-sha256\"" "--Session.key=b\"ac3abf1b-359c-436c-aabe-969c9a216fc6\"" --shell=9027 "--transport=\"tcp\"" --iopub=9029 --f=c:\Users\hugm0001\AppData\Roaming\jupyter\runtime\kernel-v2-8744bFUieO8qOGpr.json

MODFLOW was compiled using uniform precision.

Real Variables
  KIND: 8
  TINY (smallest non-zero value):    2.225074-308
  HUGE (largest value):    1.797693+308
  PRECISION: 15
  BIT SIZE: 64

Integer Variables
  KIND: 4
  HUGE (largest value): 2147483647
  BIT SIZE: 32

Long Integer Variables
  KIND: 8
  HUGE (largest value): 9223372036854775807
  BIT SIZE: 64

Logical Variables
  KIND: 4
  BIT SIZE: 32
 

 OPENED gwf.dis
 FILE TYPE:DIS6                   UNIT 1084   STATUS:OLD                 
 FORMAT:FORMATTED              ACCESS:SEQUENTIAL          
 ACTION:READ                


 OPENED gwf.ic
 FILE TYPE:IC6                    UNIT 1085   STATUS:OLD                 
 FORMAT:FORMATTED              ACCESS:SEQUENTIAL          
 ACTION:READ                


 OPENED gwf.npf
 FILE TYPE:NPF6                   UNIT 1086   STATUS:OLD                 
 FORMAT:FORMATTED              ACCESS:SEQUENTIAL          
 ACTION:READ                


 OPENED gwf.chd
 FILE TYPE:CHD6                   UNIT 1087   STATUS:OLD                 
 FORMAT:FORMATTED              ACCESS:SEQUENTIAL          
 ACTION:READ                


 OPENED gwf.oc
 FILE TYPE:OC6                    UNIT 1088   STATUS:OLD                 
 FORMAT:FORMATTED              ACCESS:SEQUENTIAL          
 ACTION:READ                


 OPENED gwf.sto
 FILE TYPE:STO6                   UNIT 1089   STATUS:OLD                 
 FORMAT:FORMATTED              ACCESS:SEQUENTIAL          
 ACTION:READ                


 OPENED gwf.wel
 FILE TYPE:WEL6                   UNIT 1090   STATUS:OLD                 
 FORMAT:FORMATTED              ACCESS:SEQUENTIAL          
 ACTION:READ                


 OPENED gwf.drn
 FILE TYPE:DRN6                   UNIT 1091   STATUS:OLD                 
 FORMAT:FORMATTED              ACCESS:SEQUENTIAL          
 ACTION:READ                


 OPENED gwf.api
 FILE TYPE:API6                   UNIT 1092   STATUS:OLD                 
 FORMAT:FORMATTED              ACCESS:SEQUENTIAL          
 ACTION:READ                

 NAMEFILE OPTIONS:
    PACKAGE FLOWS WILL BE PRINTED FOR ALL MODEL PACKAGES
    FLOWS WILL BE SAVED TO BUDGET FILE SPECIFIED IN OUTPUT CONTROL
    NEWTON-RAPHSON method enabled for the model.

 DIS -- STRUCTURED GRID DISCRETIZATION PACKAGE, VERSION 2 : 3/27/2014 - INPUT READ FROM UNIT 1084


 # File generated by Flopy version 3.3.6 on 07/16/2022 at 15:08:32.
 PROCESSING DISCRETIZATION OPTIONS
 END OF DISCRETIZATION OPTIONS
 MODEL LENGTH UNIT IS UNDEFINED
 PROCESSING DISCRETIZATION DIMENSIONS
    NLAY =       1
    NROW =      15
    NCOL =      10
 END OF DISCRETIZATION DIMENSIONS
 PROCESSING GRIDDATA

                     DELR =   100.0000    

                     DELC =   100.0000    

 TOP ELEVATION OF LAYER 1 =   1.000000    

   MODEL LAYER BOTTOM EL. =  -10.00000    
 END PROCESSING GRIDDATA

 NPF -- NODE PROPERTY FLOW PACKAGE, VERSION 1, 3/30/2015 INPUT READ FROM UNIT 1086


 # File generated by Flopy version 3.3.6 on 07/16/2022 at 15:08:32.
 PROCESSING NPF OPTIONS
    CELL-BY-CELL FLOW INFORMATION WILL BE SAVED TO BINARY FILE WHENEVER ICBCFL IS NOT ZERO.
    SPECIFIC DISCHARGE WILL BE CALCULATED AT CELL CENTERS AND WRITTEN TO DATA-SPDIS IN BUDGET FILE WHEN REQUESTED.
 END OF NPF OPTIONS

 WEL   -- WEL PACKAGE, VERSION 8, 2/22/2014 INPUT READ FROM UNIT 1090
 # File generated by Flopy version 3.3.6 on 07/16/2022 at 15:08:32.

 PROCESSING WEL OPTIONS
    WEL BOUNDARIES HAVE NAMES IN LAST COLUMN.
    AUTOMATIC FLOW REDUCTION OF WELLS IMPLEMENTED.
    AUTOMATIC FLOW REDUCTION FRACTION (  0.1000000    ).

 OPENED hd1h_well_reduce.csv
 FILE TYPE:CSV   UNIT 1094   STATUS:REPLACE             
 FORMAT:FORMATTED              ACCESS:SEQUENTIAL          
 ACTION:READWRITE           

    AUTO FLOW REDUCE INFORMATION WILL BE SAVED TO FILE: hd1h_well_reduce.csv
    OPENED ON UNIT: 1094

 OPENED gwf.wel.obs
 FILE TYPE:OBS   UNIT 1095   STATUS:OLD                 
 FORMAT:FORMATTED              ACCESS:SEQUENTIAL          
 ACTION:READ                

 END OF WEL OPTIONS

 PROCESSING WEL DIMENSIONS
    MAXBOUND =       1
 END OF WEL DIMENSIONS

 DRN   -- DRN PACKAGE, VERSION 8, 2/22/2014 INPUT READ FROM UNIT 1091
 # File generated by Flopy version 3.3.6 on 07/16/2022 at 15:08:32.

 PROCESSING DRN OPTIONS
    DRN BOUNDARIES HAVE NAMES IN LAST COLUMN.
    FLOWS WILL BE SAVED TO BUDGET FILE SPECIFIED IN OUTPUT CONTROL

 OPENED gwf.drn.obs
 FILE TYPE:OBS   UNIT 1096   STATUS:OLD                 
 FORMAT:FORMATTED              ACCESS:SEQUENTIAL          
 ACTION:READ                

 END OF DRN OPTIONS

 PROCESSING DRN DIMENSIONS
    MAXBOUND =     150
 END OF DRN DIMENSIONS

 API   -- API PACKAGE, VERSION 8, 2/22/2014 INPUT READ FROM UNIT 1092
 # File generated by Flopy version 3.3.6 on 07/16/2022 at 15:08:32.

 PROCESSING API OPTIONS
 END OF API OPTIONS

 PROCESSING API DIMENSIONS
    MAXBOUND =     150
 END OF API DIMENSIONS

 CHD   -- CHD PACKAGE, VERSION 8, 2/22/2014 INPUT READ FROM UNIT 1087
 # File generated by Flopy version 3.3.6 on 07/16/2022 at 15:08:32.

 PROCESSING CHD OPTIONS
    CHD BOUNDARIES HAVE NAMES IN LAST COLUMN.

 OPENED gwf.chd.obs
 FILE TYPE:OBS   UNIT 1097   STATUS:OLD                 
 FORMAT:FORMATTED              ACCESS:SEQUENTIAL          
 ACTION:READ                

 END OF CHD OPTIONS

 PROCESSING CHD DIMENSIONS
    MAXBOUND =      30
 END OF CHD DIMENSIONS

 IC -- INITIAL CONDITIONS PACKAGE, VERSION 8, 3/28/2015 INPUT READ FROM UNIT 1085
 # File generated by Flopy version 3.3.6 on 07/16/2022 at 15:08:32.
 PROCESSING GRIDDATA

     INITIAL HEAD =   1.000000    
 END PROCESSING GRIDDATA
 PROCESSING GRIDDATA

                ICELLTYPE = 1

                        K =   1.000000    

                      K33 =   1.000000    
 K22 not provided.  Assuming K22 = K.
 END PROCESSING GRIDDATA

 STO -- STORAGE PACKAGE, VERSION 1, 5/19/2014 INPUT READ FROM UNIT 1089


 # File generated by Flopy version 3.3.6 on 07/16/2022 at 15:08:32.
 PROCESSING STORAGE OPTIONS
    CELL-BY-CELL FLOW INFORMATION WILL BE SAVED TO BINARY FILE WHENEVER ICBCFL IS NOT ZERO.
 END OF STORAGE OPTIONS
 PROCESSING GRIDDATA

                 ICONVERT = 1

         SPECIFIC STORAGE =  0.1000000E-04

           SPECIFIC YIELD =  0.2000000    
 END PROCESSING GRIDDATA
    BINARY GRID INFORMATION WILL BE WRITTEN TO:
      UNIT NUMBER: 1098
      FILE NAME: d:\Workspace\hugm0001\github\mf6api_test_cases\examples\redistribute_rch\model\gwf.dis.grb

 OPENED d:\Workspace\hugm0001\github\mf6api_test_cases\examples\redistribute_rch\model\gwf.dis.grb
 FILE TYPE:DATA(BINARY)   UNIT 1098   STATUS:REPLACE             
 FORMAT:UNFORMATTED            ACCESS:STREAM              
 ACTION:READWRITE           

      THE LAST TIME STEP WILL BE PRINTED
      THE LAST TIME STEP WILL BE PRINTED
 # File generated by Flopy version 3.3.6 on 07/16/2022 at 15:08:32.

 PROCESSING OC OPTIONS

    BUDGET INFORMATION WILL BE WRITTEN TO:
      UNIT NUMBER: 1099
      FILE NAME: gwf.cbb

 OPENED gwf.cbb
 FILE TYPE:DATA(BINARY)   UNIT 1099   STATUS:REPLACE             
 FORMAT:UNFORMATTED            ACCESS:STREAM              
 ACTION:READWRITE           

    HEAD INFORMATION WILL BE WRITTEN TO:
      UNIT NUMBER: 1100
      FILE NAME: gwf.hds

 OPENED gwf.hds
 FILE TYPE:DATA(BINARY)   UNIT 1100   STATUS:REPLACE             
 FORMAT:UNFORMATTED            ACCESS:STREAM              
 ACTION:READWRITE           

 END OF OC OPTIONS

The observation utility is active for "WEL-1"
 # File generated by Flopy version 3.3.6 on 07/16/2022 at 15:08:32.

Processing observation options:

Text output number of digits of precision set to:  9
The PRINT_INPUT option has been specified.


 OBSERVATIONS READ FROM FILE "gwf.wel.obs"
 ----------------------------------------------------------------------------------------------------------------------------------------------------------------------------------------------------------------------------
 NAME                                     TYPE                                       TIME         LOCATION DATA                              OUTPUT FILENAME                                                                 
 ----------------------------------------------------------------------------------------------------------------------------------------------------------------------------------------------------------------------------
 WEL                                      CONTINUOUS  WEL                            ALL TIMES    "  wel"                                    wel.csv                                                                         
 ----------------------------------------------------------------------------------------------------------------------------------------------------------------------------------------------------------------------------



The observation utility is active for "DRN-0"
 # File generated by Flopy version 3.3.6 on 07/16/2022 at 15:08:32.

Processing observation options:

Text output number of digits of precision set to:  9


The observation utility is active for "CHD_0"
 # File generated by Flopy version 3.3.6 on 07/16/2022 at 15:08:32.

Processing observation options:

Text output number of digits of precision set to:  9


start timestep kper="1" kstp="1" mode="normal"


 BEGIN READING OUTPUT CONTROL FOR STRESS PERIOD 1
      ALL TIME STEPS WILL BE SAVED
      ALL TIME STEPS WILL BE SAVED
      ALL TIME STEPS WILL BE PRINTED
      ALL TIME STEPS WILL BE PRINTED

 END READING OUTPUT CONTROL FOR STRESS PERIOD 1


 PROCESSING STORAGE PERIOD DATA
 END PROCESSING STORAGE PERIOD DATA


 STRESS PERIOD 1 IS STEADY-STATE


 REUSING WELS FROM LAST STRESS PERIOD
 UBDSV1 SAVING           STO-SS ON UNIT   1099 AT TIME STEP      1, STRESS PERIOD      1
 UBDSV1 SAVING           STO-SY ON UNIT   1099 AT TIME STEP      1, STRESS PERIOD      1
 UBDSV1 SAVING     FLOW-JA-FACE ON UNIT   1099 AT TIME STEP      1, STRESS PERIOD      1
 UBDSV06 SAVING       DATA-SPDIS IN MODEL GWF              PACKAGE NPF             CONNECTED TO MODEL GWF              PACKAGE NPF              ON UNIT   1099 AT TIME STEP      1, STRESS PERIOD      1
 UBDSV06 SAVING              WEL IN MODEL GWF              PACKAGE GWF             CONNECTED TO MODEL GWF              PACKAGE WEL-1            ON UNIT   1099 AT TIME STEP      1, STRESS PERIOD      1
 UBDSV06 SAVING              DRN IN MODEL GWF              PACKAGE GWF             CONNECTED TO MODEL GWF              PACKAGE DRN-0            ON UNIT   1099 AT TIME STEP      1, STRESS PERIOD      1
 UBDSV06 SAVING              API IN MODEL GWF              PACKAGE GWF             CONNECTED TO MODEL GWF              PACKAGE MAR              ON UNIT   1099 AT TIME STEP      1, STRESS PERIOD      1
 UBDSV06 SAVING              CHD IN MODEL GWF              PACKAGE GWF             CONNECTED TO MODEL GWF              PACKAGE CHD_0            ON UNIT   1099 AT TIME STEP      1, STRESS PERIOD      1

    CALCULATED INTERCELL FLOW FOR PERIOD 1 STEP 1
(1,1,1): (1,1,2) 1.969279E-09 (1,2,1) 0.00000
(1,1,2): (1,1,1) -1.969279E-09 (1,1,3) 1.851728E-09 (1,2,2) 1.423957E-10
(1,1,3): (1,1,2) -1.851728E-09 (1,1,4) 1.432006E-09 (1,2,3) 2.495788E-10
(1,1,4): (1,1,3) -1.432006E-09 (1,1,5) 8.738238E-10 (1,2,4) 2.901489E-10
(1,1,5): (1,1,4) -8.738238E-10 (1,1,6) 1.863508E-10 (1,2,5) 2.294915E-10
(1,1,6): (1,1,5) -1.863508E-10 (1,1,7) -5.909474E-10 (1,2,6) 9.264372E-11
(1,1,7): (1,1,6) 5.909474E-10 (1,1,8) -1.343662E-09 (1,2,7) -5.708222E-11
(1,1,8): (1,1,7) 1.343662E-09 (1,1,9) -1.965609E-09 (1,2,8) -1.537384E-10
(1,1,9): (1,1,8) 1.965609E-09 (1,1,10) -2.412969E-09 (1,2,9) -1.576063E-10
(1,1,10): (1,1,9) 2.412969E-09 (1,2,10) 0.00000
(1,2,1): (1,1,1) 0.00000 (1,2,2) 2.111674E-09 (1,3,1) 0.00000
(1,2,2): (1,1,2) -1.423957E-10 (1,2,1) -2.111674E-09 (1,2,3) 1.958911E-09 (1,3,2) -1.397872E-10
(1,2,3): (1,1,3) -2.495788E-10 (1,2,2) -1.958911E-09 (1,2,4) 1.472576E-09 (1,3,3) -3.328351E-10
(1,2,4): (1,1,4) -2.901489E-10 (1,2,3) -1.472576E-09 (1,2,5) 8.131663E-10 (1,3,4) -4.634080E-10
(1,2,5): (1,1,5) -2.294915E-10 (1,2,4) -8.131663E-10 (1,2,6) 4.950305E-11 (1,3,5) -5.454693E-10
(1,2,6): (1,1,6) -9.264372E-11 (1,2,5) -4.950305E-11 (1,2,7) -7.406733E-10 (1,3,6) -5.828680E-10
(1,2,7): (1,1,7) 5.708222E-11 (1,2,6) 7.406733E-10 (1,2,8) -1.440318E-09 (1,3,7) -5.647178E-10
(1,2,8): (1,1,8) 1.537384E-10 (1,2,7) 1.440318E-09 (1,2,9) -1.969477E-09 (1,3,8) -4.707874E-10
(1,2,9): (1,1,9) 1.576063E-10 (1,2,8) 1.969477E-09 (1,2,10) -2.255363E-09 (1,3,9) -2.785820E-10
(1,2,10): (1,1,10) 0.00000 (1,2,9) 2.255363E-09 (1,3,10) 0.00000
(1,3,1): (1,2,1) 0.00000 (1,3,2) 1.971887E-09 (1,4,1) 0.00000
(1,3,2): (1,2,2) 1.397872E-10 (1,3,1) -1.971887E-09 (1,3,3) 1.765863E-09 (1,4,2) -2.125172E-10
(1,3,3): (1,2,3) 3.328351E-10 (1,3,2) -1.765863E-09 (1,3,4) 1.342003E-09 (1,4,3) -4.889437E-10
(1,3,4): (1,2,4) 4.634080E-10 (1,3,3) -1.342003E-09 (1,3,5) 7.311050E-10 (1,4,4) -7.341214E-10
(1,3,5): (1,2,5) 5.454693E-10 (1,3,4) -7.311050E-10 (1,3,6) 1.210441E-11 (1,4,5) -9.027701E-10
(1,3,6): (1,2,6) 5.828680E-10 (1,3,5) -1.210441E-11 (1,3,7) -7.225231E-10 (1,4,6) -9.617557E-10
(1,3,7): (1,2,7) 5.647178E-10 (1,3,6) 7.225231E-10 (1,3,8) -1.346387E-09 (1,4,7) -8.890916E-10
(1,3,8): (1,2,8) 4.707874E-10 (1,3,7) 1.346387E-09 (1,3,9) -1.777271E-09 (1,4,8) -6.941400E-10
(1,3,9): (1,2,9) 2.785820E-10 (1,3,8) 1.777271E-09 (1,3,10) -1.976781E-09 (1,4,9) -3.873084E-10
(1,3,10): (1,2,10) 0.00000 (1,3,9) 1.976781E-09 (1,4,10) 0.00000
(1,4,1): (1,3,1) 0.00000 (1,4,2) 1.759370E-09 (1,5,1) 0.00000
(1,4,2): (1,3,2) 2.125172E-10 (1,4,1) -1.759370E-09 (1,4,3) 1.489436E-09 (1,5,2) -3.778268E-10
(1,4,3): (1,3,3) 4.889437E-10 (1,4,2) -1.489436E-09 (1,4,4) 1.096826E-09 (1,5,3) -7.066243E-10
(1,4,4): (1,3,4) 7.341214E-10 (1,4,3) -1.096826E-09 (1,4,5) 5.624563E-10 (1,5,4) -9.875307E-10
(1,4,5): (1,3,5) 9.027701E-10 (1,4,4) -5.624563E-10 (1,4,6) -4.688118E-11 (1,5,5) -1.177985E-09
(1,4,6): (1,3,6) 9.617557E-10 (1,4,5) 4.688118E-11 (1,4,7) -6.498590E-10 (1,5,6) -1.233888E-09
(1,4,7): (1,3,7) 8.890916E-10 (1,4,6) 6.498590E-10 (1,4,8) -1.151436E-09 (1,5,7) -1.124562E-09
(1,4,8): (1,3,8) 6.941400E-10 (1,4,7) 1.151436E-09 (1,4,9) -1.470440E-09 (1,5,8) -8.563363E-10
(1,4,9): (1,3,9) 3.873084E-10 (1,4,8) 1.470440E-09 (1,4,10) -1.589472E-09 (1,5,9) -4.633629E-10
(1,4,10): (1,3,10) 0.00000 (1,4,9) 1.589472E-09 (1,5,10) 0.00000
(1,5,1): (1,4,1) 0.00000 (1,5,2) 1.381543E-09 (1,6,1) 0.00000
(1,5,2): (1,4,2) 3.778268E-10 (1,5,1) -1.381543E-09 (1,5,3) 1.160639E-09 (1,6,2) -4.515746E-10
(1,5,3): (1,4,3) 7.066243E-10 (1,5,2) -1.160639E-09 (1,5,4) 8.159192E-10 (1,6,3) -8.528119E-10
(1,5,4): (1,4,4) 9.875307E-10 (1,5,3) -8.159192E-10 (1,5,5) 3.720022E-10 (1,6,4) -1.179128E-09
(1,5,5): (1,4,5) 1.177985E-09 (1,5,4) -3.720022E-10 (1,5,6) -1.027841E-10 (1,6,5) -1.378750E-09
(1,5,6): (1,4,6) 1.233888E-09 (1,5,5) 1.027841E-10 (1,5,7) -5.405332E-10 (1,6,6) -1.410231E-09
(1,5,7): (1,4,7) 1.124562E-09 (1,5,6) 5.405332E-10 (1,5,8) -8.832102E-10 (1,6,7) -1.256679E-09
(1,5,8): (1,4,8) 8.563363E-10 (1,5,7) 8.832102E-10 (1,5,9) -1.077466E-09 (1,6,8) -9.350537E-10
(1,5,9): (1,4,9) 4.633629E-10 (1,5,8) 1.077466E-09 (1,5,10) -1.126109E-09 (1,6,9) -4.938437E-10
(1,5,10): (1,4,10) 0.00000 (1,5,9) 1.126109E-09 (1,6,10) 0.00000
(1,6,1): (1,5,1) 0.00000 (1,6,2) 9.299687E-10 (1,7,1) 0.00000
(1,6,2): (1,5,2) 4.515746E-10 (1,6,1) -9.299687E-10 (1,6,3) 7.594015E-10 (1,7,2) -4.890916E-10
(1,6,3): (1,5,3) 8.528119E-10 (1,6,2) -7.594015E-10 (1,6,4) 4.896036E-10 (1,7,3) -9.351190E-10
(1,6,4): (1,5,4) 1.179128E-09 (1,6,3) -4.896036E-10 (1,6,5) 1.723795E-10 (1,7,4) -1.277376E-09
(1,6,5): (1,5,5) 1.378750E-09 (1,6,4) -1.723795E-10 (1,6,6) -1.342653E-10 (1,7,5) -1.462380E-09
(1,6,6): (1,5,6) 1.410231E-09 (1,6,5) 1.342653E-10 (1,6,7) -3.869804E-10 (1,7,6) -1.461198E-09
(1,6,7): (1,5,7) 1.256679E-09 (1,6,6) 3.869804E-10 (1,6,8) -5.615853E-10 (1,7,7) -1.274088E-09
(1,6,8): (1,5,8) 9.350537E-10 (1,6,7) 5.615853E-10 (1,6,9) -6.362565E-10 (1,7,8) -9.306056E-10
(1,6,9): (1,5,9) 4.938437E-10 (1,6,8) 6.362565E-10 (1,6,10) -6.322657E-10 (1,7,9) -4.847268E-10
(1,6,10): (1,5,10) 0.00000 (1,6,9) 6.322657E-10 (1,7,10) 0.00000
(1,7,1): (1,6,1) 0.00000 (1,7,2) 4.408771E-10 (1,8,1) 0.00000
(1,7,2): (1,6,2) 4.890916E-10 (1,7,1) -4.408771E-10 (1,7,3) 3.133741E-10 (1,8,2) -4.975254E-10
(1,7,3): (1,6,3) 9.351190E-10 (1,7,2) -3.133741E-10 (1,7,4) 1.473463E-10 (1,8,3) -9.414886E-10
(1,7,4): (1,6,4) 1.277376E-09 (1,7,3) -1.473463E-10 (1,7,5) -1.262443E-11 (1,8,4) -1.263933E-09
(1,7,5): (1,6,5) 1.462380E-09 (1,7,4) 1.262443E-11 (1,7,6) -1.330830E-10 (1,8,5) -1.420076E-09
(1,7,6): (1,6,6) 1.461198E-09 (1,7,5) 1.330830E-10 (1,7,7) -1.998707E-10 (1,8,6) -1.394859E-09
(1,7,7): (1,6,7) 1.274088E-09 (1,7,6) 1.998707E-10 (1,7,8) -2.181026E-10 (1,8,7) -1.200310E-09
(1,7,8): (1,6,8) 9.306056E-10 (1,7,7) 2.181026E-10 (1,7,9) -1.903777E-10 (1,8,8) -8.711683E-10
(1,7,9): (1,6,9) 4.847268E-10 (1,7,8) 1.903777E-10 (1,7,10) -1.475389E-10 (1,8,9) -4.562663E-10
(1,7,10): (1,6,10) 0.00000 (1,7,9) 1.475389E-10 (1,8,10) 0.00000
(1,8,1): (1,7,1) 0.00000 (1,8,2) -5.664833E-11 (1,9,1) 0.00000
(1,8,2): (1,7,2) 4.975254E-10 (1,8,1) 5.664833E-11 (1,8,3) -1.305891E-10 (1,9,2) -4.690034E-10
(1,8,3): (1,7,3) 9.414886E-10 (1,8,2) 1.305891E-10 (1,8,4) -1.750985E-10 (1,9,3) -8.735919E-10
(1,8,4): (1,7,4) 1.263933E-09 (1,8,3) 1.750985E-10 (1,8,5) -1.687669E-10 (1,9,4) -1.156970E-09
(1,8,5): (1,7,5) 1.420076E-09 (1,8,4) 1.687669E-10 (1,8,6) -1.078663E-10 (1,9,5) -1.286512E-09
(1,8,6): (1,7,6) 1.394859E-09 (1,8,5) 1.078663E-10 (1,8,7) -5.321963E-12 (1,9,6) -1.256253E-09
(1,8,7): (1,7,7) 1.200310E-09 (1,8,6) 5.321963E-12 (1,8,8) 1.110394E-10 (1,9,7) -1.081493E-09
(1,8,8): (1,7,8) 8.711683E-10 (1,8,7) -1.110394E-10 (1,8,9) 2.245244E-10 (1,9,8) -7.925131E-10
(1,8,9): (1,7,9) 4.562663E-10 (1,8,8) -2.245244E-10 (1,8,10) 3.087273E-10 (1,9,9) -4.245130E-10
(1,8,10): (1,7,10) 0.00000 (1,8,9) -3.087273E-10 (1,9,10) 0.00000
(1,9,1): (1,8,1) 0.00000 (1,9,2) -5.256517E-10 (1,10,1) 0.00000
(1,9,2): (1,8,2) 4.690034E-10 (1,9,1) 5.256517E-10 (1,9,3) -5.351776E-10 (1,10,2) -4.102241E-10
(1,9,3): (1,8,3) 8.735919E-10 (1,9,2) 5.351776E-10 (1,9,4) -4.584767E-10 (1,10,3) -7.573564E-10
(1,9,4): (1,8,4) 1.156970E-09 (1,9,3) 4.584767E-10 (1,9,5) -2.983089E-10 (1,10,4) -9.991076E-10
(1,9,5): (1,8,5) 1.286512E-09 (1,9,4) 2.983089E-10 (1,9,6) -7.760707E-11 (1,10,5) -1.112214E-09
(1,9,6): (1,8,6) 1.256253E-09 (1,9,5) 7.760707E-11 (1,9,7) 1.694383E-10 (1,10,6) -1.092977E-09
(1,9,7): (1,8,7) 1.081493E-09 (1,9,6) -1.694383E-10 (1,9,8) 4.000190E-10 (1,10,7) -9.516133E-10
(1,9,8): (1,8,8) 7.925131E-10 (1,9,7) -4.000190E-10 (1,9,9) 5.925244E-10 (1,10,8) -7.070378E-10
(1,9,9): (1,8,9) 4.245130E-10 (1,9,8) -5.925244E-10 (1,9,10) 7.332403E-10 (1,10,9) -3.807922E-10
(1,9,10): (1,8,10) 0.00000 (1,9,9) -7.332403E-10 (1,10,10) 0.00000
(1,10,1): (1,9,1) 0.00000 (1,10,2) -9.358758E-10 (1,11,1) 0.00000
(1,10,2): (1,9,2) 4.102241E-10 (1,10,1) 9.358758E-10 (1,10,3) -8.823099E-10 (1,11,2) -3.374870E-10
(1,10,3): (1,9,3) 7.573564E-10 (1,10,2) 8.823099E-10 (1,10,4) -7.002280E-10 (1,11,3) -6.235921E-10
(1,10,4): (1,9,4) 9.991076E-10 (1,10,3) 7.002280E-10 (1,10,5) -4.114149E-10 (1,11,4) -8.263617E-10
(1,10,5): (1,9,5) 1.112214E-09 (1,10,4) 4.114149E-10 (1,10,6) -5.837075E-11 (1,11,5) -9.272680E-10
(1,10,6): (1,9,6) 1.092977E-09 (1,10,5) 5.837075E-11 (1,10,7) 3.108024E-10 (1,11,6) -9.206831E-10
(1,10,7): (1,9,7) 9.516133E-10 (1,10,6) -3.108024E-10 (1,10,8) 6.445944E-10 (1,11,7) -8.074196E-10
(1,10,8): (1,9,8) 7.070378E-10 (1,10,7) -6.445944E-10 (1,10,9) 9.187701E-10 (1,11,8) -5.950853E-10
(1,10,9): (1,9,9) 3.807922E-10 (1,10,8) -9.187701E-10 (1,10,10) 1.114033E-09 (1,11,9) -3.014185E-10
(1,10,10): (1,9,10) 0.00000 (1,10,9) -1.114033E-09 (1,11,10) 0.00000
(1,11,1): (1,10,1) 0.00000 (1,11,2) -1.273363E-09 (1,12,1) 0.00000
(1,11,2): (1,10,2) 3.374870E-10 (1,11,1) 1.273363E-09 (1,11,3) -1.168415E-09 (1,12,2) -2.630418E-10
(1,11,3): (1,10,3) 6.235921E-10 (1,11,2) 1.168415E-09 (1,11,4) -9.029976E-10 (1,12,3) -4.877053E-10
(1,11,4): (1,10,4) 8.263617E-10 (1,11,3) 9.029976E-10 (1,11,5) -5.123212E-10 (1,12,4) -6.469347E-10
(1,11,5): (1,10,5) 9.272680E-10 (1,11,4) 5.123212E-10 (1,11,6) -5.178584E-11 (1,12,5) -7.252648E-10
(1,11,6): (1,10,6) 9.206831E-10 (1,11,5) 5.178584E-11 (1,11,7) 4.240658E-10 (1,12,6) -7.194243E-10
(1,11,7): (1,10,7) 8.074196E-10 (1,11,6) -4.240658E-10 (1,11,8) 8.569287E-10 (1,12,7) -6.253213E-10
(1,11,8): (1,10,8) 5.950853E-10 (1,11,7) -8.569287E-10 (1,11,9) 1.212437E-09 (1,12,8) -4.467311E-10
(1,11,9): (1,10,9) 3.014185E-10 (1,11,8) -1.212437E-09 (1,11,10) 1.415451E-09 (1,12,9) -2.067517E-10
(1,11,10): (1,10,10) 0.00000 (1,11,9) -1.415451E-09 (1,12,10) 0.00000
(1,12,1): (1,11,1) 0.00000 (1,12,2) -1.536405E-09 (1,13,1) 0.00000
(1,12,2): (1,11,2) 2.630418E-10 (1,12,1) 1.536405E-09 (1,12,3) -1.393079E-09 (1,13,2) -1.887725E-10
(1,12,3): (1,11,3) 4.877053E-10 (1,12,2) 1.393079E-09 (1,12,4) -1.062227E-09 (1,13,3) -3.458678E-10
(1,12,4): (1,11,4) 6.469347E-10 (1,12,3) 1.062227E-09 (1,12,5) -5.906513E-10 (1,13,4) -4.486710E-10
(1,12,5): (1,11,5) 7.252648E-10 (1,12,4) 5.906513E-10 (1,12,6) -4.594533E-11 (1,13,5) -4.874266E-10
(1,12,6): (1,11,6) 7.194243E-10 (1,12,5) 4.594533E-11 (1,12,7) 5.181689E-10 (1,13,6) -4.706318E-10
(1,12,7): (1,11,7) 6.253213E-10 (1,12,6) -5.181689E-10 (1,12,8) 1.035519E-09 (1,13,7) -4.023094E-10
(1,12,8): (1,11,8) 4.467311E-10 (1,12,7) -1.035519E-09 (1,12,9) 1.452416E-09 (1,13,8) -2.914175E-10
(1,12,9): (1,11,9) 2.067517E-10 (1,12,8) -1.452416E-09 (1,12,10) 1.622203E-09 (1,13,9) -1.672701E-10
(1,12,10): (1,11,10) 0.00000 (1,12,9) -1.622203E-09 (1,13,10) 0.00000
(1,13,1): (1,12,1) 0.00000 (1,13,2) -1.725177E-09 (1,14,1) 0.00000
(1,13,2): (1,12,2) 1.887725E-10 (1,13,1) 1.725177E-09 (1,13,3) -1.550174E-09 (1,14,2) -1.110795E-10
(1,13,3): (1,12,3) 3.458678E-10 (1,13,2) 1.550174E-09 (1,13,4) -1.165030E-09 (1,14,3) -1.885207E-10
(1,13,4): (1,12,4) 4.486710E-10 (1,13,3) 1.165030E-09 (1,13,5) -6.294068E-10 (1,14,4) -2.279016E-10
(1,13,5): (1,12,5) 4.874266E-10 (1,13,4) 6.294068E-10 (1,13,6) -2.915052E-11 (1,14,5) -2.310148E-10
(1,13,6): (1,12,6) 4.706318E-10 (1,13,5) 2.915052E-11 (1,13,7) 5.864912E-10 (1,14,6) -1.960327E-10
(1,13,7): (1,12,7) 4.023094E-10 (1,13,6) -5.864912E-10 (1,13,8) 1.146411E-09 (1,14,7) -1.272624E-10
(1,13,8): (1,12,8) 2.914175E-10 (1,13,7) -1.146411E-09 (1,13,9) 1.576564E-09 (1,14,8) -4.986828E-11
(1,13,9): (1,12,9) 1.672701E-10 (1,13,8) -1.576564E-09 (1,13,10) 1.789473E-09 (1,14,9) -3.296672E-11
(1,13,10): (1,12,10) 0.00000 (1,13,9) -1.789473E-09 (1,14,10) 0.00000
(1,14,1): (1,13,1) 0.00000 (1,14,2) -1.836257E-09 (1,15,1) 0.00000
(1,14,2): (1,13,2) 1.110795E-10 (1,14,1) 1.836257E-09 (1,14,3) -1.627615E-09 (1,15,2) -3.553637E-11
(1,14,3): (1,13,3) 1.885207E-10 (1,14,2) 1.627615E-09 (1,14,4) -1.204411E-09 (1,15,3) -1.627036E-11
(1,14,4): (1,13,4) 2.279016E-10 (1,14,3) 1.204411E-09 (1,14,5) -6.325201E-10 (1,15,4) 1.924026E-11
(1,14,5): (1,13,5) 2.310148E-10 (1,14,4) 6.325201E-10 (1,14,6) 5.831603E-12 (1,15,5) 4.125490E-11
(1,14,6): (1,13,6) 1.960327E-10 (1,14,5) -5.831603E-12 (1,14,7) 6.552616E-10 (1,15,6) 6.117489E-11
(1,14,7): (1,13,7) 1.272624E-10 (1,14,6) -6.552616E-10 (1,14,8) 1.223805E-09 (1,15,7) 9.516658E-11
(1,14,8): (1,13,8) 4.986828E-11 (1,14,7) -1.223805E-09 (1,14,9) 1.593465E-09 (1,15,8) 1.275642E-10
(1,14,9): (1,13,9) 3.296672E-11 (1,14,8) -1.593465E-09 (1,14,10) 1.822439E-09 (1,15,9) 1.105646E-10
(1,14,10): (1,13,10) 0.00000 (1,14,9) -1.822439E-09 (1,15,10) 0.00000
(1,15,1): (1,14,1) 0.00000 (1,15,2) -1.871793E-09
(1,15,2): (1,14,2) 3.553637E-11 (1,15,1) 1.871793E-09 (1,15,3) -1.608349E-09
(1,15,3): (1,14,3) 1.627036E-11 (1,15,2) 1.608349E-09 (1,15,4) -1.168901E-09
(1,15,4): (1,14,4) -1.924026E-11 (1,15,3) 1.168901E-09 (1,15,5) -6.105054E-10
(1,15,5): (1,14,5) -4.125490E-11 (1,15,4) 6.105054E-10 (1,15,6) 2.575160E-11
(1,15,6): (1,14,6) -6.117489E-11 (1,15,5) -2.575160E-11 (1,15,7) 6.892533E-10
(1,15,7): (1,14,7) -9.516658E-11 (1,15,6) -6.892533E-10 (1,15,8) 1.256203E-09
(1,15,8): (1,14,8) -1.275642E-10 (1,15,7) -1.256203E-09 (1,15,9) 1.576466E-09
(1,15,9): (1,14,9) -1.105646E-10 (1,15,8) -1.576466E-09 (1,15,10) 1.711875E-09
(1,15,10): (1,14,10) 0.00000 (1,15,9) -1.711875E-09

 DRN PACKAGE (DRN-0) FLOW RATES   PERIOD      1   STEP        1
 ----------------------------------------------------------------------------------------
   NUMBER   CELLID                    RATE       NAME                                    
 ----------------------------------------------------------------------------------------
     1      (1,1,1)               0.0000000      SURF                                    
     2      (1,1,2)               0.0000000      SURF                                    
     3      (1,1,3)               0.0000000      SURF                                    
     4      (1,1,4)               0.0000000      SURF                                    
     5      (1,1,5)               0.0000000      SURF                                    
     6      (1,1,6)               0.0000000      SURF                                    
     7      (1,1,7)               0.0000000      SURF                                    
     8      (1,1,8)               0.0000000      SURF                                    
     9      (1,1,9)               0.0000000      SURF                                    
     10     (1,1,10)              0.0000000      SURF                                    
     11     (1,2,1)               0.0000000      SURF                                    
     12     (1,2,2)               0.0000000      SURF                                    
     13     (1,2,3)               0.0000000      SURF                                    
     14     (1,2,4)               0.0000000      SURF                                    
     15     (1,2,5)               0.0000000      SURF                                    
     16     (1,2,6)               0.0000000      SURF                                    
     17     (1,2,7)               0.0000000      SURF                                    
     18     (1,2,8)               0.0000000      SURF                                    
     19     (1,2,9)               0.0000000      SURF                                    
     20     (1,2,10)              0.0000000      SURF                                    
     21     (1,3,1)               0.0000000      SURF                                    
     22     (1,3,2)               0.0000000      SURF                                    
     23     (1,3,3)               0.0000000      SURF                                    
     24     (1,3,4)               0.0000000      SURF                                    
     25     (1,3,5)               0.0000000      SURF                                    
     26     (1,3,6)               0.0000000      SURF                                    
     27     (1,3,7)               0.0000000      SURF                                    
     28     (1,3,8)               0.0000000      SURF                                    
     29     (1,3,9)               0.0000000      SURF                                    
     30     (1,3,10)              0.0000000      SURF                                    
     31     (1,4,1)               0.0000000      SURF                                    
     32     (1,4,2)               0.0000000      SURF                                    
     33     (1,4,3)               0.0000000      SURF                                    
     34     (1,4,4)               0.0000000      SURF                                    
     35     (1,4,5)               0.0000000      SURF                                    
     36     (1,4,6)               0.0000000      SURF                                    
     37     (1,4,7)               0.0000000      SURF                                    
     38     (1,4,8)               0.0000000      SURF                                    
     39     (1,4,9)               0.0000000      SURF                                    
     40     (1,4,10)              0.0000000      SURF                                    
     41     (1,5,1)               0.0000000      SURF                                    
     42     (1,5,2)               0.0000000      SURF                                    
     43     (1,5,3)               0.0000000      SURF                                    
     44     (1,5,4)               0.0000000      SURF                                    
     45     (1,5,5)               0.0000000      SURF                                    
     46     (1,5,6)               0.0000000      SURF                                    
     47     (1,5,7)               0.0000000      SURF                                    
     48     (1,5,8)               0.0000000      SURF                                    
     49     (1,5,9)               0.0000000      SURF                                    
     50     (1,5,10)              0.0000000      SURF                                    
     51     (1,6,1)               0.0000000      SURF                                    
     52     (1,6,2)               0.0000000      SURF                                    
     53     (1,6,3)               0.0000000      SURF                                    
     54     (1,6,4)               0.0000000      SURF                                    
     55     (1,6,5)               0.0000000      SURF                                    
     56     (1,6,6)               0.0000000      SURF                                    
     57     (1,6,7)               0.0000000      SURF                                    
     58     (1,6,8)               0.0000000      SURF                                    
     59     (1,6,9)               0.0000000      SURF                                    
     60     (1,6,10)              0.0000000      SURF                                    
     61     (1,7,1)               0.0000000      SURF                                    
     62     (1,7,2)               0.0000000      SURF                                    
     63     (1,7,3)               0.0000000      SURF                                    
     64     (1,7,4)               0.0000000      SURF                                    
     65     (1,7,5)               0.0000000      SURF                                    
     66     (1,7,6)               0.0000000      SURF                                    
     67     (1,7,7)               0.0000000      SURF                                    
     68     (1,7,8)               0.0000000      SURF                                    
     69     (1,7,9)               0.0000000      SURF                                    
     70     (1,7,10)              0.0000000      SURF                                    
     71     (1,8,1)               0.0000000      SURF                                    
     72     (1,8,2)               0.0000000      SURF                                    
     73     (1,8,3)               0.0000000      SURF                                    
     74     (1,8,4)               0.0000000      SURF                                    
     75     (1,8,5)               0.0000000      SURF                                    
     76     (1,8,6)               0.0000000      SURF                                    
     77     (1,8,7)               0.0000000      SURF                                    
     78     (1,8,8)               0.0000000      SURF                                    
     79     (1,8,9)               0.0000000      SURF                                    
     80     (1,8,10)              0.0000000      SURF                                    
     81     (1,9,1)               0.0000000      SURF                                    
     82     (1,9,2)               0.0000000      SURF                                    
     83     (1,9,3)               0.0000000      SURF                                    
     84     (1,9,4)               0.0000000      SURF                                    
     85     (1,9,5)               0.0000000      SURF                                    
     86     (1,9,6)               0.0000000      SURF                                    
     87     (1,9,7)               0.0000000      SURF                                    
     88     (1,9,8)               0.0000000      SURF                                    
     89     (1,9,9)               0.0000000      SURF                                    
     90     (1,9,10)              0.0000000      SURF                                    
     91     (1,10,1)              0.0000000      SURF                                    
     92     (1,10,2)              0.0000000      SURF                                    
     93     (1,10,3)              0.0000000      SURF                                    
     94     (1,10,4)              0.0000000      SURF                                    
     95     (1,10,5)              0.0000000      SURF                                    
     96     (1,10,6)              0.0000000      SURF                                    
     97     (1,10,7)              0.0000000      SURF                                    
     98     (1,10,8)              0.0000000      SURF                                    
     99     (1,10,9)              0.0000000      SURF                                    
    100     (1,10,10)             0.0000000      SURF                                    
    101     (1,11,1)              0.0000000      SURF                                    
    102     (1,11,2)              0.0000000      SURF                                    
    103     (1,11,3)              0.0000000      SURF                                    
    104     (1,11,4)              0.0000000      SURF                                    
    105     (1,11,5)              0.0000000      SURF                                    
    106     (1,11,6)              0.0000000      SURF                                    
    107     (1,11,7)              0.0000000      SURF                                    
    108     (1,11,8)              0.0000000      SURF                                    
    109     (1,11,9)              0.0000000      SURF                                    
    110     (1,11,10)             0.0000000      SURF                                    
    111     (1,12,1)              0.0000000      SURF                                    
    112     (1,12,2)              0.0000000      SURF                                    
    113     (1,12,3)              0.0000000      SURF                                    
    114     (1,12,4)              0.0000000      SURF                                    
    115     (1,12,5)              0.0000000      SURF                                    
    116     (1,12,6)              0.0000000      SURF                                    
    117     (1,12,7)              0.0000000      SURF                                    
    118     (1,12,8)              0.0000000      SURF                                    
    119     (1,12,9)              0.0000000      SURF                                    
    120     (1,12,10)             0.0000000      SURF                                    
    121     (1,13,1)              0.0000000      SURF                                    
    122     (1,13,2)              0.0000000      SURF                                    
    123     (1,13,3)              0.0000000      SURF                                    
    124     (1,13,4)              0.0000000      SURF                                    
    125     (1,13,5)              0.0000000      SURF                                    
    126     (1,13,6)              0.0000000      SURF                                    
    127     (1,13,7)              0.0000000      SURF                                    
    128     (1,13,8)              0.0000000      SURF                                    
    129     (1,13,9)              0.0000000      SURF                                    
    130     (1,13,10)             0.0000000      SURF                                    
    131     (1,14,1)              0.0000000      SURF                                    
    132     (1,14,2)              0.0000000      SURF                                    
    133     (1,14,3)              0.0000000      SURF                                    
    134     (1,14,4)              0.0000000      SURF                                    
    135     (1,14,5)              0.0000000      SURF                                    
    136     (1,14,6)              0.0000000      SURF                                    
    137     (1,14,7)              0.0000000      SURF                                    
    138     (1,14,8)              0.0000000      SURF                                    
    139     (1,14,9)              0.0000000      SURF                                    
    140     (1,14,10)             0.0000000      SURF                                    
    141     (1,15,1)              0.0000000      SURF                                    
    142     (1,15,2)              0.0000000      SURF                                    
    143     (1,15,3)              0.0000000      SURF                                    
    144     (1,15,4)              0.0000000      SURF                                    
    145     (1,15,5)              0.0000000      SURF                                    
    146     (1,15,6)              0.0000000      SURF                                    
    147     (1,15,7)              0.0000000      SURF                                    
    148     (1,15,8)              0.0000000      SURF                                    
    149     (1,15,9)              0.0000000      SURF                                    
    150     (1,15,10)             0.0000000      SURF                                    
 ----------------------------------------------------------------------------------------




 API PACKAGE (MAR) FLOW RATES   PERIOD      1   STEP        1
 -----------------------------------------------
   NUMBER   CELLID                    RATE      
 -----------------------------------------------
     1      (1,6,5)               0.0000000     
     2      (1,6,6)               0.0000000     
     3      (1,6,7)               0.0000000     
     4      (1,10,5)              0.0000000     
     5      (1,10,6)              0.0000000     
     6      (1,10,7)              0.0000000     
 -----------------------------------------------




 CHD PACKAGE (CHD_0) FLOW RATES   PERIOD      1   STEP        1
 ----------------------------------------------------------------------------------------
   NUMBER   CELLID                    RATE       NAME                                    
 ----------------------------------------------------------------------------------------
     1      (1,1,1)              -1.96927867E-09 CHD                                     
     2      (1,1,10)             -2.41296901E-09 CHD                                     
     3      (1,2,1)              -2.11167442E-09 CHD                                     
     4      (1,2,10)             -2.25536274E-09 CHD                                     
     5      (1,3,1)              -1.97188723E-09 CHD                                     
     6      (1,3,10)             -1.97678070E-09 CHD                                     
     7      (1,4,1)              -1.75937001E-09 CHD                                     
     8      (1,4,10)             -1.58947230E-09 CHD                                     
     9      (1,5,1)              -1.38154321E-09 CHD                                     
     10     (1,5,10)             -1.12610941E-09 CHD                                     
     11     (1,6,1)              -9.29968652E-10 CHD                                     
     12     (1,6,10)             -6.32265711E-10 CHD                                     
     13     (1,7,1)              -4.40877071E-10 CHD                                     
     14     (1,7,10)             -1.47538928E-10 CHD                                     
     15     (1,8,1)               5.66483290E-11 CHD                                     
     16     (1,8,10)              3.08727328E-10 CHD                                     
     17     (1,9,1)               5.25651749E-10 CHD                                     
     18     (1,9,10)              7.33240349E-10 CHD                                     
     19     (1,10,1)              9.35875807E-10 CHD                                     
     20     (1,10,10)             1.11403255E-09 CHD                                     
     21     (1,11,1)              1.27336276E-09 CHD                                     
     22     (1,11,10)             1.41545101E-09 CHD                                     
     23     (1,12,1)              1.53640456E-09 CHD                                     
     24     (1,12,10)             1.62220269E-09 CHD                                     
     25     (1,13,1)              1.72517704E-09 CHD                                     
     26     (1,13,10)             1.78947276E-09 CHD                                     
     27     (1,14,1)              1.83625654E-09 CHD                                     
     28     (1,14,10)             1.82243948E-09 CHD                                     
     29     (1,15,1)              1.87179291E-09 CHD                                     
     30     (1,15,10)             1.71187488E-09 CHD                                     
 ----------------------------------------------------------------------------------------



1
  HEAD IN LAYER   1 AT END OF TIME STEP   1 IN STRESS PERIOD    1
  ---------------------------------------------------------------------------

            1           2           3           4           5           6           7           8           9          10
 ........................................................................................................................
   1    0.000      1.9693E-10  3.8210E-10  5.2530E-10  6.1268E-10  6.3132E-10  5.7222E-10  4.3786E-10  2.4130E-10   0.000    
   2    0.000      2.1117E-10  4.0706E-10  5.5432E-10  6.3563E-10  6.4058E-10  5.6652E-10  4.2248E-10  2.2554E-10   0.000    
   3    0.000      1.9719E-10  3.7377E-10  5.0798E-10  5.8109E-10  5.8230E-10  5.1004E-10  3.7541E-10  1.9768E-10   0.000    
   4    0.000      1.7594E-10  3.2488E-10  4.3456E-10  4.9081E-10  4.8612E-10  4.2113E-10  3.0599E-10  1.5895E-10   0.000    
   5    0.000      1.3815E-10  2.5422E-10  3.3581E-10  3.7301E-10  3.6273E-10  3.0868E-10  2.2036E-10  1.1261E-10   0.000    
   6    0.000      9.2997E-11  1.6894E-10  2.1790E-10  2.3514E-10  2.2171E-10  1.8301E-10  1.2685E-10  6.3227E-11   0.000    
   7    0.000      4.4088E-11  7.5425E-11  9.0160E-11  8.8897E-11  7.5589E-11  5.5602E-11  3.3792E-11  1.4754E-11   0.000    
   8    0.000     -5.6648E-12 -1.8724E-11 -3.6234E-11 -5.3110E-11 -6.3897E-11 -6.4429E-11 -5.3325E-11 -3.0873E-11   0.000    
   9    0.000     -5.2565E-11 -1.0608E-10 -1.5193E-10 -1.8176E-10 -1.8952E-10 -1.7258E-10 -1.3258E-10 -7.3324E-11   0.000    
  10    0.000     -9.3588E-11 -1.8182E-10 -2.5184E-10 -2.9298E-10 -2.9882E-10 -2.6774E-10 -2.0328E-10 -1.1140E-10   0.000    
  11    0.000     -1.2734E-10 -2.4418E-10 -3.3448E-10 -3.8571E-10 -3.9089E-10 -3.4848E-10 -2.6279E-10 -1.4155E-10   0.000    
  12    0.000     -1.5364E-10 -2.9295E-10 -3.9917E-10 -4.5824E-10 -4.6283E-10 -4.1101E-10 -3.0746E-10 -1.6222E-10   0.000    
  13    0.000     -1.7252E-10 -3.2753E-10 -4.4404E-10 -5.0698E-10 -5.0989E-10 -4.5124E-10 -3.3660E-10 -1.7895E-10   0.000    
  14    0.000     -1.8363E-10 -3.4639E-10 -4.6683E-10 -5.3008E-10 -5.2950E-10 -4.6397E-10 -3.4159E-10 -1.8224E-10   0.000    
  15    0.000     -1.8718E-10 -3.4801E-10 -4.6490E-10 -5.2595E-10 -5.2338E-10 -4.5445E-10 -3.2883E-10 -1.7119E-10   0.000    

 HEAD WILL BE SAVED ON UNIT 1100 AT END OF TIME STEP    1, STRESS PERIOD    1


  VOLUME BUDGET FOR ENTIRE MODEL AT END OF TIME STEP    1, STRESS PERIOD   1
  ---------------------------------------------------------------------------------------------------

     CUMULATIVE VOLUME      L**3       RATES FOR THIS TIME STEP      L**3/T          PACKAGE NAME    
     ------------------                 ------------------------                     ----------------

           IN:                                      IN:
           ---                                      ---
              STO-SS =           0.0000                STO-SS =           0.0000     STORAGE                          
              STO-SY =           0.0000                STO-SY =           0.0000     STORAGE                          
                 WEL =           0.0000                   WEL =           0.0000     WEL-1                            
                 DRN =           0.0000                   DRN =           0.0000     DRN-0                            
                 API =           0.0000                   API =           0.0000     MAR                              
                 CHD =       2.0279E-08                   CHD =       2.0279E-08     CHD_0                            

            TOTAL IN =       2.0279E-08              TOTAL IN =       2.0279E-08

          OUT:                                     OUT:
          ----                                     ----
              STO-SS =           0.0000                STO-SS =           0.0000     STORAGE                          
              STO-SY =           0.0000                STO-SY =           0.0000     STORAGE                          
                 WEL =           0.0000                   WEL =           0.0000     WEL-1                            
                 DRN =           0.0000                   DRN =           0.0000     DRN-0                            
                 API =           0.0000                   API =           0.0000     MAR                              
                 CHD =       2.0705E-08                   CHD =       2.0705E-08     CHD_0                            

           TOTAL OUT =       2.0705E-08             TOTAL OUT =       2.0705E-08

            IN - OUT =      -4.2649E-10              IN - OUT =      -4.2649E-10

 PERCENT DISCREPANCY =          -2.08     PERCENT DISCREPANCY =          -2.08




         TIME SUMMARY AT END OF TIME STEP    1 IN STRESS PERIOD    1
                    SECONDS     MINUTES      HOURS       DAYS        YEARS
                    -----------------------------------------------------------
   TIME STEP LENGTH  86400.      1440.0      24.000      1.0000     2.73785E-03
 STRESS PERIOD TIME  86400.      1440.0      24.000      1.0000     2.73785E-03
         TOTAL TIME  86400.      1440.0      24.000      1.0000     2.73785E-03


end timestep


start timestep kper="2" kstp="1" mode="normal"


 END OF FILE DETECTED IN OUTPUT CONTROL.
 CURRENT OUTPUT CONTROL SETTINGS WILL BE 
 REPEATED UNTIL THE END OF THE SIMULATION.

 OUTPUT CONTROL FOR STRESS PERIOD 2 IS REPEATED USING SETTINGS FROM A PREVIOUS STRESS PERIOD.


 PROCESSING STORAGE PERIOD DATA
 END PROCESSING STORAGE PERIOD DATA


 STRESS PERIOD 2 IS TRANSIENT


 REUSING DRNS FROM LAST STRESS PERIOD
 UBDSV1 SAVING           STO-SS ON UNIT   1099 AT TIME STEP      1, STRESS PERIOD      2
 UBDSV1 SAVING           STO-SY ON UNIT   1099 AT TIME STEP      1, STRESS PERIOD      2
 UBDSV1 SAVING     FLOW-JA-FACE ON UNIT   1099 AT TIME STEP      1, STRESS PERIOD      2
 UBDSV06 SAVING       DATA-SPDIS IN MODEL GWF              PACKAGE NPF             CONNECTED TO MODEL GWF              PACKAGE NPF              ON UNIT   1099 AT TIME STEP      1, STRESS PERIOD      2
 UBDSV06 SAVING              WEL IN MODEL GWF              PACKAGE GWF             CONNECTED TO MODEL GWF              PACKAGE WEL-1            ON UNIT   1099 AT TIME STEP      1, STRESS PERIOD      2
 UBDSV06 SAVING              DRN IN MODEL GWF              PACKAGE GWF             CONNECTED TO MODEL GWF              PACKAGE DRN-0            ON UNIT   1099 AT TIME STEP      1, STRESS PERIOD      2
 UBDSV06 SAVING              API IN MODEL GWF              PACKAGE GWF             CONNECTED TO MODEL GWF              PACKAGE MAR              ON UNIT   1099 AT TIME STEP      1, STRESS PERIOD      2
 UBDSV06 SAVING              CHD IN MODEL GWF              PACKAGE GWF             CONNECTED TO MODEL GWF              PACKAGE CHD_0            ON UNIT   1099 AT TIME STEP      1, STRESS PERIOD      2

    CALCULATED INTERCELL FLOW FOR PERIOD 2 STEP 1
(1,1,1): (1,1,2) 1.876641E-09 (1,2,1) 1.345818E-12
(1,1,2): (1,1,1) -1.876641E-09 (1,1,3) 1.816057E-09 (1,2,2) 8.483142E-11
(1,1,3): (1,1,2) -1.816057E-09 (1,1,4) 1.275522E-09 (1,2,3) -1.483722E-10
(1,1,4): (1,1,3) -1.275522E-09 (1,1,5) 1.015921E-10 (1,2,4) -2.646763E-09
(1,1,5): (1,1,4) -1.015921E-10 (1,1,6) -1.806986E-09 (1,2,5) -1.736439E-08
(1,1,6): (1,1,5) 1.806986E-09 (1,1,7) 1.386750E-09 (1,2,6) -6.235349E-08
(1,1,7): (1,1,6) -1.386750E-09 (1,1,8) -5.780389E-10 (1,2,7) -1.762083E-08
(1,1,8): (1,1,7) 5.780389E-10 (1,1,9) -1.800507E-09 (1,2,8) -3.043214E-09
(1,1,9): (1,1,8) 1.800507E-09 (1,1,10) -2.254592E-09 (1,2,9) -5.083059E-10
(1,1,10): (1,1,9) 2.254592E-09 (1,2,10) -4.765146E-11
(1,2,1): (1,1,1) -1.345818E-12 (1,2,2) 1.960126E-09 (1,3,1) -5.362966E-11
(1,2,2): (1,1,2) -8.483142E-11 (1,2,1) -1.960126E-09 (1,2,3) 1.582854E-09 (1,3,2) -6.652491E-10
(1,2,3): (1,1,3) 1.483722E-10 (1,2,2) -1.582854E-09 (1,2,4) -1.222869E-09 (1,3,3) -5.994960E-09
(1,2,4): (1,1,4) 2.646763E-09 (1,2,3) 1.222869E-09 (1,2,5) -1.461603E-08 (1,3,4) -5.184197E-08
(1,2,5): (1,1,5) 1.736439E-08 (1,2,4) 1.461603E-08 (1,2,6) -4.679608E-08 (1,3,5) -3.565108E-07
(1,2,6): (1,1,6) 6.235349E-08 (1,2,5) 4.679608E-08 (1,2,7) 4.611941E-08 (1,3,6) -1.463976E-06
(1,2,7): (1,1,7) 1.762083E-08 (1,2,6) -4.611941E-08 (1,2,8) 1.399957E-08 (1,3,7) -3.565378E-07
(1,2,8): (1,1,8) 3.043214E-09 (1,2,7) -1.399957E-08 (1,2,9) 7.344009E-10 (1,3,8) -5.186259E-08
(1,2,9): (1,1,9) 5.083059E-10 (1,2,8) -7.344009E-10 (1,2,10) -1.793937E-09 (1,3,9) -5.959474E-09
(1,2,10): (1,1,10) 4.765146E-11 (1,2,9) 1.793937E-09 (1,3,10) -5.883815E-10
(1,3,1): (1,2,1) 5.362966E-11 (1,3,2) 1.348507E-09 (1,4,1) -5.701225E-10
(1,3,2): (1,2,2) 6.652491E-10 (1,3,1) -1.348507E-09 (1,3,3) -3.746857E-09 (1,4,2) -7.211233E-09
(1,3,3): (1,2,3) 5.994960E-09 (1,3,2) 3.746857E-09 (1,3,4) -4.706988E-08 (1,4,3) -8.462333E-08
(1,3,4): (1,2,4) 5.184197E-08 (1,3,3) 4.706988E-08 (1,3,5) -3.192848E-07 (1,4,4) -8.703009E-07
(1,3,5): (1,2,5) 3.565108E-07 (1,3,4) 3.192848E-07 (1,3,6) -1.154262E-06 (1,4,5) -7.015730E-06
(1,3,6): (1,2,6) 1.463976E-06 (1,3,5) 1.154262E-06 (1,3,7) 1.153558E-06 (1,4,6) -3.436303E-05
(1,3,7): (1,2,7) 3.565378E-07 (1,3,6) -1.153558E-06 (1,3,8) 3.186747E-07 (1,4,7) -7.015715E-06
(1,3,8): (1,2,8) 5.186259E-08 (1,3,7) -3.186747E-07 (1,3,9) 4.663752E-08 (1,4,8) -8.702602E-07
(1,3,9): (1,2,9) 5.959474E-09 (1,3,8) -4.663752E-08 (1,3,10) 3.577155E-09 (1,4,9) -8.455292E-08
(1,3,10): (1,2,10) 5.883815E-10 (1,3,9) -3.577155E-09 (1,4,10) -7.531264E-09
(1,4,1): (1,3,1) 5.701225E-10 (1,4,2) -5.292604E-09 (1,5,1) -5.853876E-09
(1,4,2): (1,3,2) 7.211233E-09 (1,4,1) 5.292604E-09 (1,4,3) -8.115895E-08 (1,5,2) -8.303069E-08
(1,4,3): (1,3,3) 8.462333E-08 (1,4,2) 8.115895E-08 (1,4,4) -8.327474E-07 (1,5,3) -1.138516E-06
(1,4,4): (1,3,4) 8.703009E-07 (1,4,3) 8.327474E-07 (1,4,5) -6.464714E-06 (1,5,4) -1.372905E-05
(1,4,5): (1,3,5) 7.015730E-06 (1,4,4) 6.464714E-06 (1,4,6) -2.850156E-05 (1,5,5) -1.328398E-04
(1,4,6): (1,3,6) 3.436303E-05 (1,4,5) 2.850156E-05 (1,4,7) 2.850087E-05 (1,5,6) -8.095420E-04
(1,4,7): (1,3,7) 7.015715E-06 (1,4,6) -2.850087E-05 (1,4,8) 6.464130E-06 (1,5,7) -1.328398E-04
(1,4,8): (1,3,8) 8.702602E-07 (1,4,7) -6.464130E-06 (1,4,9) 8.323448E-07 (1,5,8) -1.372894E-05
(1,4,9): (1,3,9) 8.455292E-08 (1,4,8) -8.323448E-07 (1,4,10) 8.059881E-08 (1,5,9) -1.138616E-06
(1,4,10): (1,3,10) 7.531264E-09 (1,4,9) -8.059881E-08 (1,5,10) -8.815305E-08
(1,5,1): (1,4,1) 5.853876E-09 (1,5,2) -8.246942E-08 (1,6,1) -5.109650E-08
(1,5,2): (1,4,2) 8.303069E-08 (1,5,1) 8.246942E-08 (1,5,3) -1.136644E-06 (1,6,2) -8.344267E-07
(1,5,3): (1,4,3) 1.138516E-06 (1,5,2) 1.136644E-06 (1,5,4) -1.342328E-05 (1,6,3) -1.342494E-05
(1,5,4): (1,4,4) 1.372905E-05 (1,5,3) 1.342328E-05 (1,5,5) -1.255755E-04 (1,6,4) -1.947662E-04
(1,5,5): (1,4,5) 1.328398E-04 (1,5,4) 1.255755E-04 (1,5,6) -7.052030E-04 (1,6,5) -2.359177E-03
(1,5,6): (1,4,6) 8.095420E-04 (1,5,5) 7.052030E-04 (1,5,7) 7.052023E-04 (1,6,6) -1.913705E-02
(1,5,7): (1,4,7) 1.328398E-04 (1,5,6) -7.052023E-04 (1,5,8) 1.255750E-04 (1,6,7) -2.359177E-03
(1,5,8): (1,4,8) 1.372894E-05 (1,5,7) -1.255750E-04 (1,5,9) 1.342266E-05 (1,6,8) -1.947661E-04
(1,5,9): (1,4,9) 1.138616E-06 (1,5,8) -1.342266E-05 (1,5,10) 1.131061E-06 (1,6,9) -1.342726E-05
(1,5,10): (1,4,10) 8.815305E-08 (1,5,9) -1.131061E-06 (1,6,10) -8.822556E-07
(1,6,1): (1,5,1) 5.109650E-08 (1,6,2) -8.657996E-07 (1,7,1) -3.354507E-07
(1,6,2): (1,5,2) 8.344267E-07 (1,6,1) 8.657996E-07 (1,6,3) -1.372716E-05 (1,7,2) -6.466487E-06
(1,6,3): (1,5,3) 1.342494E-05 (1,6,2) 1.372716E-05 (1,6,4) -1.947645E-04 (1,7,3) -1.255768E-04
(1,6,4): (1,5,4) 1.947662E-04 (1,6,3) 1.947645E-04 (1,6,5) -2.289985E-03 (1,7,4) -2.289986E-03
(1,6,5): (1,5,5) 2.359177E-03 (1,6,4) 2.289985E-03 (1,6,6) -1.748280E-02 (1,7,5) -3.717952E-02
(1,6,6): (1,5,6) 1.913705E-02 (1,6,5) 1.748280E-02 (1,6,7) 1.748280E-02 (1,7,6) -0.453955
(1,6,7): (1,5,7) 2.359177E-03 (1,6,6) -1.748280E-02 (1,6,8) 2.289984E-03 (1,7,7) -3.717952E-02
(1,6,8): (1,5,8) 1.947661E-04 (1,6,7) -2.289984E-03 (1,6,9) 1.947615E-04 (1,7,8) -2.289986E-03
(1,6,9): (1,5,9) 1.342726E-05 (1,6,8) -1.947615E-04 (1,6,10) 1.367606E-05 (1,7,9) -1.255918E-04
(1,6,10): (1,5,10) 8.822556E-07 (1,6,9) -1.367606E-05 (1,7,10) -6.785301E-06
(1,7,1): (1,6,1) 3.354507E-07 (1,7,2) -6.996836E-06 (1,8,1) -1.201141E-06
(1,7,2): (1,6,2) 6.466487E-06 (1,7,1) 6.996836E-06 (1,7,3) -1.328375E-04 (1,8,2) -2.850391E-05
(1,7,3): (1,6,3) 1.255768E-04 (1,7,2) 1.328375E-04 (1,7,4) -2.359175E-03 (1,8,3) -7.052039E-04
(1,7,4): (1,6,4) 2.289986E-03 (1,7,3) 2.359175E-03 (1,7,5) -3.717952E-02 (1,8,4) -1.748280E-02
(1,7,5): (1,6,5) 3.717952E-02 (1,7,4) 3.717952E-02 (1,7,6) -0.434177 (1,8,5) -0.434177
(1,7,6): (1,6,6) 0.453955 (1,7,5) 0.434177 (1,7,7) 0.434177 (1,8,6) -10.8076
(1,7,7): (1,6,7) 3.717952E-02 (1,7,6) -0.434177 (1,7,8) 3.717952E-02 (1,8,7) -0.434177
(1,7,8): (1,6,8) 2.289986E-03 (1,7,7) -3.717952E-02 (1,7,9) 2.359158E-03 (1,8,8) -1.748280E-02
(1,7,9): (1,6,9) 1.255918E-04 (1,7,8) -2.359158E-03 (1,7,10) 1.324825E-04 (1,8,9) -7.052502E-04
(1,7,10): (1,6,10) 6.785301E-06 (1,7,9) -1.324825E-04 (1,8,10) -2.965580E-05
(1,8,1): (1,7,1) 1.201141E-06 (1,8,2) -3.429961E-05 (1,9,1) 1.201095E-06
(1,8,2): (1,7,2) 2.850391E-05 (1,8,1) 3.429961E-05 (1,8,3) -8.095382E-04 (1,9,2) 2.850295E-05
(1,8,3): (1,7,3) 7.052039E-04 (1,8,2) 8.095382E-04 (1,8,4) -1.913705E-02 (1,9,3) 7.052021E-04
(1,8,4): (1,7,4) 1.748280E-02 (1,8,3) 1.913705E-02 (1,8,5) -0.453955 (1,9,4) 1.748280E-02
(1,8,5): (1,7,5) 0.434177 (1,8,4) 0.453955 (1,8,6) -10.8076 (1,9,5) 0.434177
(1,8,6): (1,7,6) 10.8076 (1,8,5) 10.8076 (1,8,7) 10.8076 (1,9,6) 10.8076
(1,8,7): (1,7,7) 0.434177 (1,8,6) -10.8076 (1,8,8) 0.453955 (1,9,7) 0.434177
(1,8,8): (1,7,8) 1.748280E-02 (1,8,7) -0.453955 (1,8,9) 1.913698E-02 (1,9,8) 1.748280E-02
(1,8,9): (1,7,9) 7.052502E-04 (1,8,8) -1.913698E-02 (1,8,10) 8.080776E-04 (1,9,9) 7.052493E-04
(1,8,10): (1,7,10) 2.965580E-05 (1,8,9) -8.080776E-04 (1,9,10) 2.965576E-05
(1,9,1): (1,8,1) -1.201095E-06 (1,9,2) -6.997749E-06 (1,10,1) 3.354083E-07
(1,9,2): (1,8,2) -2.850295E-05 (1,9,1) 6.997749E-06 (1,9,3) -1.328384E-04 (1,10,2) 6.465593E-06
(1,9,3): (1,8,3) -7.052021E-04 (1,9,2) 1.328384E-04 (1,9,4) -2.359176E-03 (1,10,3) 1.255752E-04
(1,9,4): (1,8,4) -1.748280E-02 (1,9,3) 2.359176E-03 (1,9,5) -3.717952E-02 (1,10,4) 2.289984E-03
(1,9,5): (1,8,5) -0.434177 (1,9,4) 3.717952E-02 (1,9,6) -0.434177 (1,10,5) 3.717952E-02
(1,9,6): (1,8,6) -10.8076 (1,9,5) 0.434177 (1,9,7) 0.434177 (1,10,6) 0.453955
(1,9,7): (1,8,7) -0.434177 (1,9,6) -0.434177 (1,9,8) 3.717952E-02 (1,10,7) 3.717952E-02
(1,9,8): (1,8,8) -1.748280E-02 (1,9,7) -3.717952E-02 (1,9,9) 2.359158E-03 (1,10,8) 2.289985E-03
(1,9,9): (1,8,9) -7.052493E-04 (1,9,8) -2.359158E-03 (1,9,10) 1.324834E-04 (1,10,9) 1.255909E-04
(1,9,10): (1,8,10) -2.965576E-05 (1,9,9) -1.324834E-04 (1,10,10) 6.785260E-06
(1,10,1): (1,9,1) -3.354083E-07 (1,10,2) -8.675648E-07 (1,11,1) 5.105930E-08
(1,10,2): (1,9,2) -6.465593E-06 (1,10,1) 8.675648E-07 (1,10,3) -1.372878E-05 (1,11,2) 8.336428E-07
(1,10,3): (1,9,3) -1.255752E-04 (1,10,2) 1.372878E-05 (1,10,4) -1.947657E-04 (1,11,3) 1.342348E-05
(1,10,4): (1,9,4) -2.289984E-03 (1,10,3) 1.947657E-04 (1,10,5) -2.289985E-03 (1,11,4) 1.947642E-04
(1,10,5): (1,9,5) -3.717952E-02 (1,10,4) 2.289985E-03 (1,10,6) -1.748280E-02 (1,11,5) 2.359175E-03
(1,10,6): (1,9,6) -0.453955 (1,10,5) 1.748280E-02 (1,10,7) 1.748280E-02 (1,11,6) 1.913705E-02
(1,10,7): (1,9,7) -3.717952E-02 (1,10,6) -1.748280E-02 (1,10,8) 2.289985E-03 (1,11,7) 2.359175E-03
(1,10,8): (1,9,8) -2.289985E-03 (1,10,7) -2.289985E-03 (1,10,9) 1.947630E-04 (1,11,8) 1.947646E-04
(1,10,9): (1,9,9) -1.255909E-04 (1,10,8) -1.947630E-04 (1,10,10) 1.367772E-05 (1,11,9) 1.342647E-05
(1,10,10): (1,9,10) -6.785260E-06 (1,10,9) -1.367772E-05 (1,11,10) 8.822181E-07
(1,11,1): (1,10,1) -5.105930E-08 (1,11,2) -8.498124E-08 (1,12,1) 5.823840E-09
(1,11,2): (1,10,2) -8.336428E-07 (1,11,1) 8.498124E-08 (1,11,3) -1.138947E-06 (1,12,2) 8.239645E-08
(1,11,3): (1,10,3) -1.342348E-05 (1,11,2) 1.138947E-06 (1,11,4) -1.342498E-05 (1,12,3) 1.137331E-06
(1,11,4): (1,10,4) -1.947642E-04 (1,11,3) 1.342498E-05 (1,11,5) -1.255764E-04 (1,12,4) 1.372743E-05
(1,11,5): (1,10,5) -2.359175E-03 (1,11,4) 1.255764E-04 (1,11,6) -7.052029E-04 (1,12,5) 1.328380E-04
(1,11,6): (1,10,6) -1.913705E-02 (1,11,5) 7.052029E-04 (1,11,7) 7.052033E-04 (1,12,6) 8.095400E-04
(1,11,7): (1,10,7) -2.359175E-03 (1,11,6) -7.052033E-04 (1,11,8) 1.255767E-04 (1,12,7) 1.328381E-04
(1,11,8): (1,10,8) -1.947646E-04 (1,11,7) -1.255767E-04 (1,11,9) 1.342493E-05 (1,12,8) 1.372765E-05
(1,11,9): (1,10,9) -1.342647E-05 (1,11,8) -1.342493E-05 (1,11,10) 1.133470E-06 (1,12,9) 1.137946E-06
(1,11,10): (1,10,10) -8.822181E-07 (1,11,9) -1.133470E-06 (1,12,10) 8.812119E-08
(1,12,1): (1,11,1) -5.823840E-09 (1,12,2) -8.408629E-09 (1,13,1) 5.506624E-10
(1,12,2): (1,11,2) -8.239645E-08 (1,12,1) 8.408629E-09 (1,12,3) -8.401270E-08 (1,13,2) 6.804751E-09
(1,12,3): (1,11,3) -1.137331E-06 (1,12,2) 8.401270E-08 (1,12,4) -8.348875E-07 (1,13,3) 8.379164E-08
(1,12,4): (1,11,4) -1.372743E-05 (1,12,3) 8.348875E-07 (1,12,5) -6.465856E-06 (1,13,4) 8.691278E-07
(1,12,5): (1,11,5) -1.328380E-04 (1,12,4) 6.465856E-06 (1,12,6) -2.850155E-05 (1,13,5) 7.014353E-06
(1,12,6): (1,11,6) -8.095400E-04 (1,12,5) 2.850155E-05 (1,12,7) 2.850202E-05 (1,13,6) 3.436161E-05
(1,12,7): (1,11,7) -1.328381E-04 (1,12,6) -2.850202E-05 (1,12,8) 6.466296E-06 (1,13,7) 7.014439E-06
(1,12,8): (1,11,8) -1.372765E-05 (1,12,7) -6.466296E-06 (1,12,9) 8.352301E-07 (1,13,8) 8.692877E-07
(1,12,9): (1,11,9) -1.137946E-06 (1,12,8) -8.352301E-07 (1,12,10) 8.364432E-08 (1,13,9) 8.400852E-08
(1,12,10): (1,11,10) -8.812119E-08 (1,12,9) -8.364432E-08 (1,13,10) 7.505610E-09
(1,13,1): (1,12,1) -5.506624E-10 (1,13,2) -2.154540E-09 (1,14,1) 4.235842E-11
(1,13,2): (1,12,2) -6.804751E-09 (1,13,1) 2.154540E-09 (1,13,3) -7.025806E-09 (1,14,2) 4.215867E-10
(1,13,3): (1,12,3) -8.379164E-08 (1,13,2) 7.025806E-09 (1,13,4) -4.955132E-08 (1,14,3) 5.495715E-09
(1,13,4): (1,12,4) -8.691278E-07 (1,13,3) 4.955132E-08 (1,13,5) -3.206309E-07 (1,14,4) 5.117497E-08
(1,13,5): (1,12,5) -7.014353E-06 (1,13,4) 3.206309E-07 (1,13,6) -1.154300E-06 (1,14,5) 3.557554E-07
(1,13,6): (1,12,6) -3.436161E-05 (1,13,5) 1.154300E-06 (1,13,7) 1.154856E-06 (1,14,6) 1.463213E-06
(1,13,7): (1,12,7) -7.014439E-06 (1,13,6) -1.154856E-06 (1,13,8) 3.211442E-07 (1,14,7) 3.558548E-07
(1,13,8): (1,12,8) -8.692877E-07 (1,13,7) -3.211442E-07 (1,13,9) 4.995088E-08 (1,14,8) 5.134507E-08
(1,13,9): (1,12,9) -8.400852E-08 (1,13,8) -4.995088E-08 (1,13,10) 7.141419E-09 (1,14,9) 5.652734E-09
(1,13,10): (1,12,10) -7.505610E-09 (1,13,9) -7.141419E-09 (1,14,10) 5.737939E-10
(1,14,1): (1,13,1) -4.235842E-11 (1,14,2) -1.775312E-09 (1,15,1) 1.937264E-12
(1,14,2): (1,13,2) -4.215867E-10 (1,14,1) 1.775312E-09 (1,14,3) -1.951678E-09 (1,15,2) 1.985621E-12
(1,14,3): (1,13,3) -5.495715E-09 (1,14,2) 1.951678E-09 (1,14,4) -3.872068E-09 (1,15,3) 3.359324E-10
(1,14,4): (1,13,4) -5.117497E-08 (1,14,3) 3.872068E-09 (1,14,5) -1.605050E-08 (1,15,4) 2.893336E-09
(1,14,5): (1,13,5) -3.557554E-07 (1,14,4) 1.605050E-08 (1,14,6) -4.684266E-08 (1,15,5) 1.757323E-08
(1,14,6): (1,13,6) -1.463213E-06 (1,14,5) 4.684266E-08 (1,14,7) 4.749791E-08 (1,15,6) 6.245880E-08
(1,14,7): (1,13,7) -3.558548E-07 (1,14,6) -4.749791E-08 (1,14,8) 1.663451E-08 (1,15,7) 1.762663E-08
(1,14,8): (1,13,8) -5.134507E-08 (1,14,7) -1.663451E-08 (1,14,9) 4.258546E-09 (1,15,8) 2.997850E-09
(1,14,9): (1,13,9) -5.652734E-09 (1,14,8) -4.258546E-09 (1,14,10) 2.062479E-09 (1,15,9) 4.543014E-10
(1,14,10): (1,13,10) -5.737939E-10 (1,14,9) -2.062479E-09 (1,15,10) 4.466143E-11
(1,15,1): (1,14,1) -1.937264E-12 (1,15,2) -1.775263E-09
(1,15,2): (1,14,2) -1.985621E-12 (1,15,1) 1.775263E-09 (1,15,3) -1.617731E-09
(1,15,3): (1,14,3) -3.359324E-10 (1,15,2) 1.617731E-09 (1,15,4) -1.314665E-09
(1,15,4): (1,14,4) -2.893336E-09 (1,15,3) 1.314665E-09 (1,15,5) -1.370615E-09
(1,15,5): (1,14,5) -1.757323E-08 (1,15,4) 1.370615E-09 (1,15,6) -1.957083E-09
(1,15,6): (1,14,6) -6.245880E-08 (1,15,5) 1.957083E-09 (1,15,7) 2.665738E-09
(1,15,7): (1,14,7) -1.762663E-08 (1,15,6) -2.665738E-09 (1,15,8) 2.005732E-09
(1,15,8): (1,14,8) -2.997850E-09 (1,15,7) -2.005732E-09 (1,15,9) 1.714998E-09
(1,15,9): (1,14,9) -4.543014E-10 (1,15,8) -1.714998E-09 (1,15,10) 1.652839E-09
(1,15,10): (1,14,10) -4.466143E-11 (1,15,9) -1.652839E-09

 WEL PACKAGE (WEL-1) FLOW RATES   PERIOD      2   STEP        1
 ----------------------------------------------------------------------------------------
   NUMBER   CELLID                    RATE       NAME                                    
 ----------------------------------------------------------------------------------------
     1      (1,8,6)              -270.00000      WEL                                     
 ----------------------------------------------------------------------------------------




 DRN PACKAGE (DRN-0) FLOW RATES   PERIOD      2   STEP        1
 ----------------------------------------------------------------------------------------
   NUMBER   CELLID                    RATE       NAME                                    
 ----------------------------------------------------------------------------------------
     1      (1,1,1)               0.0000000      SURF                                    
     2      (1,1,2)               0.0000000      SURF                                    
     3      (1,1,3)               0.0000000      SURF                                    
     4      (1,1,4)               0.0000000      SURF                                    
     5      (1,1,5)               0.0000000      SURF                                    
     6      (1,1,6)               0.0000000      SURF                                    
     7      (1,1,7)               0.0000000      SURF                                    
     8      (1,1,8)               0.0000000      SURF                                    
     9      (1,1,9)               0.0000000      SURF                                    
     10     (1,1,10)              0.0000000      SURF                                    
     11     (1,2,1)               0.0000000      SURF                                    
     12     (1,2,2)               0.0000000      SURF                                    
     13     (1,2,3)               0.0000000      SURF                                    
     14     (1,2,4)               0.0000000      SURF                                    
     15     (1,2,5)               0.0000000      SURF                                    
     16     (1,2,6)               0.0000000      SURF                                    
     17     (1,2,7)               0.0000000      SURF                                    
     18     (1,2,8)               0.0000000      SURF                                    
     19     (1,2,9)               0.0000000      SURF                                    
     20     (1,2,10)              0.0000000      SURF                                    
     21     (1,3,1)               0.0000000      SURF                                    
     22     (1,3,2)               0.0000000      SURF                                    
     23     (1,3,3)               0.0000000      SURF                                    
     24     (1,3,4)               0.0000000      SURF                                    
     25     (1,3,5)               0.0000000      SURF                                    
     26     (1,3,6)               0.0000000      SURF                                    
     27     (1,3,7)               0.0000000      SURF                                    
     28     (1,3,8)               0.0000000      SURF                                    
     29     (1,3,9)               0.0000000      SURF                                    
     30     (1,3,10)              0.0000000      SURF                                    
     31     (1,4,1)               0.0000000      SURF                                    
     32     (1,4,2)               0.0000000      SURF                                    
     33     (1,4,3)               0.0000000      SURF                                    
     34     (1,4,4)               0.0000000      SURF                                    
     35     (1,4,5)               0.0000000      SURF                                    
     36     (1,4,6)               0.0000000      SURF                                    
     37     (1,4,7)               0.0000000      SURF                                    
     38     (1,4,8)               0.0000000      SURF                                    
     39     (1,4,9)               0.0000000      SURF                                    
     40     (1,4,10)              0.0000000      SURF                                    
     41     (1,5,1)               0.0000000      SURF                                    
     42     (1,5,2)               0.0000000      SURF                                    
     43     (1,5,3)               0.0000000      SURF                                    
     44     (1,5,4)               0.0000000      SURF                                    
     45     (1,5,5)               0.0000000      SURF                                    
     46     (1,5,6)               0.0000000      SURF                                    
     47     (1,5,7)               0.0000000      SURF                                    
     48     (1,5,8)               0.0000000      SURF                                    
     49     (1,5,9)               0.0000000      SURF                                    
     50     (1,5,10)              0.0000000      SURF                                    
     51     (1,6,1)               0.0000000      SURF                                    
     52     (1,6,2)               0.0000000      SURF                                    
     53     (1,6,3)               0.0000000      SURF                                    
     54     (1,6,4)               0.0000000      SURF                                    
     55     (1,6,5)               0.0000000      SURF                                    
     56     (1,6,6)               0.0000000      SURF                                    
     57     (1,6,7)               0.0000000      SURF                                    
     58     (1,6,8)               0.0000000      SURF                                    
     59     (1,6,9)               0.0000000      SURF                                    
     60     (1,6,10)              0.0000000      SURF                                    
     61     (1,7,1)               0.0000000      SURF                                    
     62     (1,7,2)               0.0000000      SURF                                    
     63     (1,7,3)               0.0000000      SURF                                    
     64     (1,7,4)               0.0000000      SURF                                    
     65     (1,7,5)               0.0000000      SURF                                    
     66     (1,7,6)               0.0000000      SURF                                    
     67     (1,7,7)               0.0000000      SURF                                    
     68     (1,7,8)               0.0000000      SURF                                    
     69     (1,7,9)               0.0000000      SURF                                    
     70     (1,7,10)              0.0000000      SURF                                    
     71     (1,8,1)               0.0000000      SURF                                    
     72     (1,8,2)               0.0000000      SURF                                    
     73     (1,8,3)               0.0000000      SURF                                    
     74     (1,8,4)               0.0000000      SURF                                    
     75     (1,8,5)               0.0000000      SURF                                    
     76     (1,8,6)               0.0000000      SURF                                    
     77     (1,8,7)               0.0000000      SURF                                    
     78     (1,8,8)               0.0000000      SURF                                    
     79     (1,8,9)               0.0000000      SURF                                    
     80     (1,8,10)              0.0000000      SURF                                    
     81     (1,9,1)               0.0000000      SURF                                    
     82     (1,9,2)               0.0000000      SURF                                    
     83     (1,9,3)               0.0000000      SURF                                    
     84     (1,9,4)               0.0000000      SURF                                    
     85     (1,9,5)               0.0000000      SURF                                    
     86     (1,9,6)               0.0000000      SURF                                    
     87     (1,9,7)               0.0000000      SURF                                    
     88     (1,9,8)               0.0000000      SURF                                    
     89     (1,9,9)               0.0000000      SURF                                    
     90     (1,9,10)              0.0000000      SURF                                    
     91     (1,10,1)              0.0000000      SURF                                    
     92     (1,10,2)              0.0000000      SURF                                    
     93     (1,10,3)              0.0000000      SURF                                    
     94     (1,10,4)              0.0000000      SURF                                    
     95     (1,10,5)              0.0000000      SURF                                    
     96     (1,10,6)              0.0000000      SURF                                    
     97     (1,10,7)              0.0000000      SURF                                    
     98     (1,10,8)              0.0000000      SURF                                    
     99     (1,10,9)              0.0000000      SURF                                    
    100     (1,10,10)             0.0000000      SURF                                    
    101     (1,11,1)              0.0000000      SURF                                    
    102     (1,11,2)              0.0000000      SURF                                    
    103     (1,11,3)              0.0000000      SURF                                    
    104     (1,11,4)              0.0000000      SURF                                    
    105     (1,11,5)              0.0000000      SURF                                    
    106     (1,11,6)              0.0000000      SURF                                    
    107     (1,11,7)              0.0000000      SURF                                    
    108     (1,11,8)              0.0000000      SURF                                    
    109     (1,11,9)              0.0000000      SURF                                    
    110     (1,11,10)             0.0000000      SURF                                    
    111     (1,12,1)              0.0000000      SURF                                    
    112     (1,12,2)              0.0000000      SURF                                    
    113     (1,12,3)              0.0000000      SURF                                    
    114     (1,12,4)              0.0000000      SURF                                    
    115     (1,12,5)              0.0000000      SURF                                    
    116     (1,12,6)              0.0000000      SURF                                    
    117     (1,12,7)              0.0000000      SURF                                    
    118     (1,12,8)              0.0000000      SURF                                    
    119     (1,12,9)              0.0000000      SURF                                    
    120     (1,12,10)             0.0000000      SURF                                    
    121     (1,13,1)              0.0000000      SURF                                    
    122     (1,13,2)              0.0000000      SURF                                    
    123     (1,13,3)              0.0000000      SURF                                    
    124     (1,13,4)              0.0000000      SURF                                    
    125     (1,13,5)              0.0000000      SURF                                    
    126     (1,13,6)              0.0000000      SURF                                    
    127     (1,13,7)              0.0000000      SURF                                    
    128     (1,13,8)              0.0000000      SURF                                    
    129     (1,13,9)              0.0000000      SURF                                    
    130     (1,13,10)             0.0000000      SURF                                    
    131     (1,14,1)              0.0000000      SURF                                    
    132     (1,14,2)              0.0000000      SURF                                    
    133     (1,14,3)              0.0000000      SURF                                    
    134     (1,14,4)              0.0000000      SURF                                    
    135     (1,14,5)              0.0000000      SURF                                    
    136     (1,14,6)              0.0000000      SURF                                    
    137     (1,14,7)              0.0000000      SURF                                    
    138     (1,14,8)              0.0000000      SURF                                    
    139     (1,14,9)              0.0000000      SURF                                    
    140     (1,14,10)             0.0000000      SURF                                    
    141     (1,15,1)              0.0000000      SURF                                    
    142     (1,15,2)              0.0000000      SURF                                    
    143     (1,15,3)              0.0000000      SURF                                    
    144     (1,15,4)              0.0000000      SURF                                    
    145     (1,15,5)              0.0000000      SURF                                    
    146     (1,15,6)              0.0000000      SURF                                    
    147     (1,15,7)              0.0000000      SURF                                    
    148     (1,15,8)              0.0000000      SURF                                    
    149     (1,15,9)              0.0000000      SURF                                    
    150     (1,15,10)             0.0000000      SURF                                    
 ----------------------------------------------------------------------------------------




 API PACKAGE (MAR) FLOW RATES   PERIOD      2   STEP        1
 -----------------------------------------------
   NUMBER   CELLID                    RATE      
 -----------------------------------------------
     1      (1,6,5)               0.0000000     
     2      (1,6,6)               0.0000000     
     3      (1,6,7)               0.0000000     
     4      (1,10,5)              0.0000000     
     5      (1,10,6)              0.0000000     
     6      (1,10,7)              0.0000000     
 -----------------------------------------------



1
  HEAD IN LAYER   1 AT END OF TIME STEP   1 IN STRESS PERIOD    2
  ---------------------------------------------------------------------------

            1           2           3           4           5           6           7           8           9          10
 ........................................................................................................................
   1   9.3864E-12  1.9705E-10  3.7866E-10  5.0621E-10  5.1637E-10  3.3567E-10  4.7434E-10  4.1654E-10  2.3649E-10  1.1030E-11
   2   9.5209E-12  2.0553E-10  3.6382E-10  2.4153E-10 -1.2201E-09 -5.8997E-09 -1.2877E-09  1.1222E-10  1.8566E-10  6.2651E-12
   3   4.1580E-12  1.3901E-10 -2.3568E-10 -4.9427E-09 -3.6871E-08 -1.5230E-07 -3.6941E-08 -5.0740E-09 -4.1029E-10 -5.2573E-11
   4  -5.2854E-11 -5.8211E-10 -8.6980E-09 -9.1973E-08 -7.3844E-07 -3.5886E-06 -7.3851E-07 -9.2100E-08 -8.8656E-09 -8.0570E-10
   5  -6.3824E-10 -8.8852E-09 -1.2255E-07 -1.4649E-06 -1.4022E-05 -8.4543E-05 -1.4022E-05 -1.4650E-06 -1.2273E-07 -9.6210E-09
   6  -5.7479E-09 -9.2328E-08 -1.4650E-06 -2.0941E-05 -2.4994E-04 -1.9983E-03 -2.4994E-04 -2.0942E-05 -1.4655E-06 -9.7847E-08
   7  -3.9293E-08 -7.3898E-07 -1.4023E-05 -2.4994E-04 -3.9680E-03 -4.7403E-02 -3.9680E-03 -2.4994E-04 -1.4025E-05 -7.7638E-07
   8  -1.5941E-07 -3.5894E-06 -8.4543E-05 -1.9983E-03 -4.7403E-02  -1.133     -4.7403E-02 -1.9983E-03 -8.4550E-05 -3.7420E-06
   9  -3.9297E-08 -7.3907E-07 -1.4023E-05 -2.4994E-04 -3.9680E-03 -4.7403E-02 -3.9680E-03 -2.4994E-04 -1.4025E-05 -7.7638E-07
  10  -5.7567E-09 -9.2513E-08 -1.4654E-06 -2.0942E-05 -2.4994E-04 -1.9983E-03 -2.4994E-04 -2.0942E-05 -1.4656E-06 -9.7855E-08
  11  -6.5076E-10 -9.1489E-09 -1.2304E-07 -1.4655E-06 -1.4023E-05 -8.4544E-05 -1.4023E-05 -1.4655E-06 -1.2298E-07 -9.6330E-09
  12  -6.8375E-11 -9.0924E-10 -9.3105E-09 -9.2799E-08 -7.3938E-07 -3.5895E-06 -7.3934E-07 -9.2708E-08 -9.1853E-09 -8.2089E-10
  13  -1.3309E-11 -2.2876E-10 -9.3134E-10 -5.8865E-09 -3.7950E-08 -1.5338E-07 -3.7894E-08 -5.7796E-09 -7.8447E-10 -7.0330E-11
  14  -9.0730E-12 -1.8660E-10 -3.8177E-10 -7.6898E-10 -2.3740E-09 -7.0583E-09 -2.3085E-09 -6.4505E-10 -2.1920E-10 -1.2950E-11
  15  -8.8793E-12 -1.8641E-10 -3.4818E-10 -4.7964E-10 -6.1671E-10 -8.1241E-10 -5.4584E-10 -3.4527E-10 -1.7377E-10 -8.4844E-12

 HEAD WILL BE SAVED ON UNIT 1100 AT END OF TIME STEP    1, STRESS PERIOD    2


  VOLUME BUDGET FOR ENTIRE MODEL AT END OF TIME STEP    1, STRESS PERIOD   2
  ---------------------------------------------------------------------------------------------------

     CUMULATIVE VOLUME      L**3       RATES FOR THIS TIME STEP      L**3/T          PACKAGE NAME    
     ------------------                 ------------------------                     ----------------

           IN:                                      IN:
           ---                                      ---
              STO-SS =           1.2847                STO-SS =           0.1285     STORAGE                          
              STO-SY =        2698.7153                STO-SY =         269.8715     STORAGE                          
                 WEL =           0.0000                   WEL =           0.0000     WEL-1                            
                 DRN =           0.0000                   DRN =           0.0000     DRN-0                            
                 API =           0.0000                   API =           0.0000     MAR                              
                 CHD =       2.0279E-08                   CHD =           0.0000     CHD_0                            

            TOTAL IN =        2700.0000              TOTAL IN =         270.0000

          OUT:                                     OUT:
          ----                                     ----
              STO-SS =       4.1259E-11                STO-SS =       4.1259E-12     STORAGE                          
              STO-SY =       8.2521E-08                STO-SY =       8.2521E-09     STORAGE                          
                 WEL =        2700.0000                   WEL =         270.0000     WEL-1                            
                 DRN =           0.0000                   DRN =           0.0000     DRN-0                            
                 API =           0.0000                   API =           0.0000     MAR                              
                 CHD =       2.0705E-08                   CHD =           0.0000     CHD_0                            

           TOTAL OUT =        2700.0000             TOTAL OUT =         270.0000

            IN - OUT =      -1.3797E-09              IN - OUT =      -9.5383E-11

 PERCENT DISCREPANCY =          -0.00     PERCENT DISCREPANCY =          -0.00




         TIME SUMMARY AT END OF TIME STEP    1 IN STRESS PERIOD    2
                    SECONDS     MINUTES      HOURS       DAYS        YEARS
                    -----------------------------------------------------------
   TIME STEP LENGTH 8.64000E+05  14400.      240.00      10.000     2.73785E-02
 STRESS PERIOD TIME 8.64000E+05  14400.      240.00      10.000     2.73785E-02
         TOTAL TIME 9.50400E+05  15840.      264.00      11.000     3.01164E-02


end timestep


start timestep kper="2" kstp="2" mode="normal"

 UBDSV1 SAVING           STO-SS ON UNIT   1099 AT TIME STEP      2, STRESS PERIOD      2
 UBDSV1 SAVING           STO-SY ON UNIT   1099 AT TIME STEP      2, STRESS PERIOD      2
 UBDSV1 SAVING     FLOW-JA-FACE ON UNIT   1099 AT TIME STEP      2, STRESS PERIOD      2
 UBDSV06 SAVING       DATA-SPDIS IN MODEL GWF              PACKAGE NPF             CONNECTED TO MODEL GWF              PACKAGE NPF              ON UNIT   1099 AT TIME STEP      2, STRESS PERIOD      2
 UBDSV06 SAVING              WEL IN MODEL GWF              PACKAGE GWF             CONNECTED TO MODEL GWF              PACKAGE WEL-1            ON UNIT   1099 AT TIME STEP      2, STRESS PERIOD      2
 UBDSV06 SAVING              DRN IN MODEL GWF              PACKAGE GWF             CONNECTED TO MODEL GWF              PACKAGE DRN-0            ON UNIT   1099 AT TIME STEP      2, STRESS PERIOD      2
 UBDSV06 SAVING              API IN MODEL GWF              PACKAGE GWF             CONNECTED TO MODEL GWF              PACKAGE MAR              ON UNIT   1099 AT TIME STEP      2, STRESS PERIOD      2
 UBDSV06 SAVING              CHD IN MODEL GWF              PACKAGE GWF             CONNECTED TO MODEL GWF              PACKAGE CHD_0            ON UNIT   1099 AT TIME STEP      2, STRESS PERIOD      2

    CALCULATED INTERCELL FLOW FOR PERIOD 2 STEP 2
(1,1,1): (1,1,2) 3.979962E-09 (1,2,1) 2.759273E-09
(1,1,2): (1,1,1) -3.979962E-09 (1,1,3) 2.148950E-08 (1,2,2) 3.131788E-08
(1,1,3): (1,1,2) -2.148950E-08 (1,1,4) 1.358036E-07 (1,2,3) 3.281786E-07
(1,1,4): (1,1,3) -1.358036E-07 (1,1,5) 5.439013E-07 (1,2,4) 2.726303E-06
(1,1,5): (1,1,4) -5.439013E-07 (1,1,6) 1.017741E-07 (1,2,5) 1.445797E-05
(1,1,6): (1,1,5) -1.017741E-07 (1,1,7) -1.022081E-07 (1,2,6) 1.629248E-05
(1,1,7): (1,1,6) 1.022081E-07 (1,1,8) -5.443818E-07 (1,2,7) 1.445774E-05
(1,1,8): (1,1,7) 5.443818E-07 (1,1,9) -1.362987E-07 (1,2,8) 2.725961E-06
(1,1,9): (1,1,8) 1.362987E-07 (1,1,10) -2.161353E-08 (1,2,9) 3.280493E-07
(1,1,10): (1,1,9) 2.161353E-08 (1,2,10) 3.374842E-08
(1,2,1): (1,1,1) -2.759273E-09 (1,2,2) 3.253857E-08 (1,3,1) 3.214618E-08
(1,2,2): (1,1,2) -3.131788E-08 (1,2,1) -3.253857E-08 (1,2,3) 3.183502E-07 (1,3,2) 4.193067E-07
(1,2,3): (1,1,3) -3.281786E-07 (1,2,2) -3.183502E-07 (1,2,4) 2.533928E-06 (1,3,3) 5.124920E-06
(1,2,4): (1,1,4) -2.726303E-06 (1,2,3) -2.533928E-06 (1,2,5) 1.227556E-05 (1,3,4) 5.072537E-05
(1,2,5): (1,1,5) -1.445797E-05 (1,2,4) -1.227556E-05 (1,2,6) 1.936287E-06 (1,3,5) 3.284646E-04
(1,2,6): (1,1,6) -1.629248E-05 (1,2,5) -1.936287E-06 (1,2,7) -1.936950E-06 (1,3,6) 3.635145E-04
(1,2,7): (1,1,7) -1.445774E-05 (1,2,6) 1.936950E-06 (1,2,8) -1.227616E-05 (1,3,7) 3.284645E-04
(1,2,8): (1,1,8) -2.725961E-06 (1,2,7) 1.227616E-05 (1,2,9) -2.534210E-06 (1,3,8) 5.072546E-05
(1,2,9): (1,1,9) -3.280493E-07 (1,2,8) 2.534210E-06 (1,2,10) -3.159144E-07 (1,3,9) 5.126929E-06
(1,2,10): (1,1,10) -3.374842E-08 (1,2,9) 3.159144E-07 (1,3,10) 4.494558E-07
(1,3,1): (1,2,1) -3.214618E-08 (1,3,2) 4.196991E-07 (1,4,1) 3.186910E-07
(1,3,2): (1,2,2) -4.193067E-07 (1,3,1) -4.196991E-07 (1,3,3) 5.023963E-06 (1,4,2) 4.892486E-06
(1,3,3): (1,2,3) -5.124920E-06 (1,3,2) -5.023963E-06 (1,3,4) 4.813438E-05 (1,4,3) 7.169648E-05
(1,3,4): (1,2,4) -5.072537E-05 (1,3,3) -4.813438E-05 (1,3,5) 2.900147E-04 (1,4,4) 8.826378E-04
(1,3,5): (1,2,5) -3.284646E-04 (1,3,4) -2.900147E-04 (1,3,6) 3.698616E-05 (1,4,5) 7.464851E-03
(1,3,6): (1,2,6) -3.635145E-04 (1,3,5) -3.698616E-05 (1,3,7) -3.698685E-05 (1,4,6) 8.084033E-03
(1,3,7): (1,2,7) -3.284645E-04 (1,3,6) 3.698685E-05 (1,3,8) -2.900151E-04 (1,4,7) 7.464851E-03
(1,3,8): (1,2,8) -5.072546E-05 (1,3,7) 2.900151E-04 (1,3,9) -4.813274E-05 (1,4,8) 8.826388E-04
(1,3,9): (1,2,9) -5.126929E-06 (1,3,8) 4.813274E-05 (1,3,10) -4.993387E-06 (1,4,9) 7.171389E-05
(1,3,10): (1,2,10) -4.494558E-07 (1,3,9) 4.993387E-06 (1,4,10) 5.193079E-06
(1,4,1): (1,3,1) -3.186910E-07 (1,4,2) 4.993494E-06 (1,5,1) 2.419859E-06
(1,4,2): (1,3,2) -4.892486E-06 (1,4,1) -4.993494E-06 (1,4,3) 7.182796E-05 (1,5,2) 4.517846E-05
(1,4,3): (1,3,3) -7.169648E-05 (1,4,2) -7.182796E-05 (1,4,4) 8.590755E-04 (1,5,3) 8.304705E-04
(1,4,4): (1,3,4) -8.826378E-04 (1,4,3) -8.590755E-04 (1,4,5) 6.872189E-03 (1,5,4) 1.362216E-02
(1,4,5): (1,3,5) -7.464851E-03 (1,4,4) -6.872189E-03 (1,4,6) 6.561221E-04 (1,5,5) 0.170065
(1,4,6): (1,3,6) -8.084033E-03 (1,4,5) -6.561221E-04 (1,4,7) -6.561227E-04 (1,5,6) 0.179478
(1,4,7): (1,3,7) -7.464851E-03 (1,4,6) 6.561227E-04 (1,4,8) -6.872188E-03 (1,5,7) 0.170065
(1,4,8): (1,3,8) -8.826388E-04 (1,4,7) 6.872188E-03 (1,4,9) -8.590575E-04 (1,5,8) 1.362216E-02
(1,4,9): (1,3,9) -7.171389E-05 (1,4,8) 8.590575E-04 (1,4,10) -7.151420E-05 (1,5,9) 8.305836E-04
(1,4,10): (1,3,10) -5.193079E-06 (1,4,9) 7.151420E-05 (1,5,10) 4.748016E-05
(1,5,1): (1,4,1) -2.419859E-06 (1,5,2) 4.775210E-05 (1,6,1) 1.030097E-05
(1,5,2): (1,4,2) -4.517846E-05 (1,5,1) -4.775210E-05 (1,5,3) 8.571202E-04 (1,6,2) 2.486133E-04
(1,5,3): (1,4,3) -8.304705E-04 (1,5,2) -8.571202E-04 (1,5,4) 1.365077E-02 (1,6,3) 6.223198E-03
(1,5,4): (1,4,4) -1.362216E-02 (1,5,3) -1.365077E-02 (1,5,5) 0.163304 (1,6,4) 0.155536
(1,5,5): (1,4,5) -0.170065 (1,5,4) -0.163304 (1,5,6) 1.005384E-02 (1,6,5) 3.87932
(1,5,6): (1,4,6) -0.179478 (1,5,5) -1.005384E-02 (1,5,7) -1.005384E-02 (1,6,6) 3.97051
(1,5,7): (1,4,7) -0.170065 (1,5,6) 1.005384E-02 (1,5,8) -0.163304 (1,6,7) 3.87932
(1,5,8): (1,4,8) -1.362216E-02 (1,5,7) 0.163304 (1,5,9) -1.365064E-02 (1,6,8) 0.155536
(1,5,9): (1,4,9) -8.305836E-04 (1,5,8) 1.365064E-02 (1,5,10) -8.546178E-04 (1,6,9) 6.223592E-03
(1,5,10): (1,4,10) -4.748016E-05 (1,5,9) 8.546178E-04 (1,6,10) 2.585056E-04
(1,6,1): (1,5,1) -1.030097E-05 (1,6,2) 2.860645E-04 (1,7,1) -1.298548E-05
(1,6,2): (1,5,2) -2.486133E-04 (1,6,1) -2.860645E-04 (1,6,3) 6.831742E-03 (1,7,2) -2.928245E-04
(1,6,3): (1,5,3) -6.223198E-03 (1,6,2) -6.831742E-03 (1,6,4) 0.162975 (1,7,3) -6.947217E-03
(1,6,4): (1,5,4) -0.155536 (1,6,3) -0.162975 (1,6,5) 3.88737 (1,7,4) -0.166394
(1,6,5): (1,5,5) -3.87932 (1,6,4) -3.88737 (1,6,6) 9.809849E-02 (1,7,5) -4.02368
(1,6,6): (1,5,6) -3.97051 (1,6,5) -9.809849E-02 (1,6,7) -9.809848E-02 (1,7,6) -5.28834
(1,6,7): (1,5,7) -3.87932 (1,6,6) 9.809848E-02 (1,6,8) -3.88737 (1,7,7) -4.02368
(1,6,8): (1,5,8) -0.155536 (1,6,7) 3.88737 (1,6,9) -0.162974 (1,7,8) -0.166394
(1,6,9): (1,5,9) -6.223592E-03 (1,6,8) 0.162974 (1,6,10) -6.819739E-03 (1,7,9) -6.947750E-03
(1,6,10): (1,5,10) -2.585056E-04 (1,6,9) 6.819739E-03 (1,7,10) -3.052525E-04
(1,7,1): (1,6,1) 1.298548E-05 (1,7,2) 6.225521E-06 (1,8,1) -9.560130E-06
(1,7,2): (1,6,2) 2.928245E-04 (1,7,1) -6.225521E-06 (1,7,3) 1.773567E-04 (1,8,2) -1.897253E-04
(1,7,3): (1,6,3) 6.947217E-03 (1,7,2) -1.773567E-04 (1,7,4) 3.532898E-03 (1,8,3) -3.821545E-03
(1,7,4): (1,6,4) 0.166394 (1,7,3) -3.532898E-03 (1,7,5) 3.494105E-02 (1,8,4) -7.342336E-02
(1,7,5): (1,6,5) 4.02368 (1,7,4) -3.494105E-02 (1,7,6) -1.11855 (1,8,5) -1.30293
(1,7,6): (1,6,6) 5.28834 (1,7,5) 1.11855 (1,7,7) 1.11855 (1,8,6) -19.6404
(1,7,7): (1,6,7) 4.02368 (1,7,6) -1.11855 (1,7,8) -3.494105E-02 (1,8,7) -1.30293
(1,7,8): (1,6,8) 0.166394 (1,7,7) 3.494105E-02 (1,7,9) -3.532905E-03 (1,8,8) -7.342338E-02
(1,7,9): (1,6,9) 6.947750E-03 (1,7,8) 3.532905E-03 (1,7,10) -1.772508E-04 (1,8,9) -3.821973E-03
(1,7,10): (1,6,10) 3.052525E-04 (1,7,9) 1.772508E-04 (1,8,10) -1.988349E-04
(1,8,1): (1,7,1) 9.560130E-06 (1,8,2) -1.739396E-04 (1,9,1) 6.766870E-06
(1,8,2): (1,7,2) 1.897253E-04 (1,8,1) 1.739396E-04 (1,8,3) -3.454450E-03 (1,9,2) 1.389741E-04
(1,8,3): (1,7,3) 3.821545E-03 (1,8,2) 3.454450E-03 (1,8,4) -6.606392E-02 (1,9,3) 2.911287E-03
(1,8,4): (1,7,4) 7.342336E-02 (1,8,3) 6.606392E-02 (1,8,5) -1.19325 (1,9,4) 5.882975E-02
(1,8,5): (1,7,5) 1.30293 (1,8,4) 1.19325 (1,8,6) -19.4219 (1,9,5) 1.12278
(1,8,6): (1,7,6) 19.6404 (1,8,5) 19.4219 (1,8,7) 19.4219 (1,9,6) 19.4130
(1,8,7): (1,7,7) 1.30293 (1,8,6) -19.4219 (1,8,8) 1.19325 (1,9,7) 1.12278
(1,8,8): (1,7,8) 7.342338E-02 (1,8,7) -1.19325 (1,8,9) 6.606350E-02 (1,9,8) 5.882976E-02
(1,8,9): (1,7,9) 3.821973E-03 (1,8,8) -6.606350E-02 (1,8,10) 3.445874E-03 (1,9,9) 2.911582E-03
(1,8,10): (1,7,10) 1.988349E-04 (1,8,9) -3.445874E-03 (1,9,10) 1.454321E-04
(1,9,1): (1,8,1) -6.766870E-06 (1,9,2) -4.173232E-05 (1,10,1) 2.257811E-06
(1,9,2): (1,8,2) -1.389741E-04 (1,9,1) 4.173232E-05 (1,9,3) -6.821222E-04 (1,10,2) 3.808342E-05
(1,9,3): (1,8,3) -2.911287E-03 (1,9,2) 6.821222E-04 (1,9,4) -1.014142E-02 (1,10,3) 6.381201E-04
(1,9,4): (1,8,4) -5.882975E-02 (1,9,3) 1.014142E-02 (1,9,5) -0.128547 (1,10,4) 9.779139E-03
(1,9,5): (1,8,5) -1.12278 (1,9,4) 0.128547 (1,9,6) -1.13026 (1,10,5) 0.128509
(1,9,6): (1,8,6) -19.4130 (1,9,5) 1.13026 (1,9,7) 1.13026 (1,10,6) 1.19979
(1,9,7): (1,8,7) -1.12278 (1,9,6) -1.13026 (1,9,8) 0.128547 (1,10,7) 0.128509
(1,9,8): (1,8,8) -5.882976E-02 (1,9,7) -0.128547 (1,9,9) 1.014128E-02 (1,10,8) 9.779145E-03
(1,9,9): (1,8,9) -2.911582E-03 (1,9,8) -1.014128E-02 (1,9,10) 6.797092E-04 (1,10,9) 6.382357E-04
(1,9,10): (1,8,10) -1.454321E-04 (1,9,9) -6.797092E-04 (1,10,10) 4.022000E-05
(1,10,1): (1,9,1) -2.257811E-06 (1,10,2) -5.906708E-06 (1,11,1) 3.904293E-07
(1,10,2): (1,9,2) -3.808342E-05 (1,10,1) 5.906708E-06 (1,10,3) -8.208524E-05 (1,11,2) 5.654555E-06
(1,10,3): (1,9,3) -6.381201E-04 (1,10,2) 8.208524E-05 (1,10,4) -1.000365E-03 (1,11,3) 7.997902E-05
(1,10,4): (1,9,4) -9.779139E-03 (1,10,3) 1.000365E-03 (1,10,5) -9.817877E-03 (1,11,4) 1.000161E-03
(1,10,5): (1,9,5) -0.128509 (1,10,4) 9.817877E-03 (1,10,6) -5.971627E-02 (1,11,5) 1.017530E-02
(1,10,6): (1,9,6) -1.19979 (1,10,5) 5.971627E-02 (1,10,7) 5.971627E-02 (1,11,6) 6.691214E-02
(1,10,7): (1,9,7) -0.128509 (1,10,6) -5.971627E-02 (1,10,8) 9.817875E-03 (1,11,7) 1.017530E-02
(1,10,8): (1,9,8) -9.779145E-03 (1,10,7) -9.817875E-03 (1,10,9) 1.000341E-03 (1,11,8) 1.000162E-03
(1,10,9): (1,9,9) -6.382357E-04 (1,10,8) -1.000341E-03 (1,10,10) 8.169316E-05 (1,11,9) 8.000182E-05
(1,10,10): (1,9,10) -4.022000E-05 (1,10,9) -8.169316E-05 (1,11,10) 6.021442E-06
(1,11,1): (1,10,1) -3.904293E-07 (1,11,2) -6.425822E-07 (1,12,1) 4.971948E-08
(1,11,2): (1,10,2) -5.654555E-06 (1,11,1) 6.425822E-07 (1,11,3) -7.760764E-06 (1,12,2) 6.318443E-07
(1,11,3): (1,10,3) -7.997902E-05 (1,11,2) 7.760764E-06 (1,11,4) -8.018353E-05 (1,12,3) 7.758270E-06
(1,11,4): (1,10,4) -1.000161E-03 (1,11,3) 8.018353E-05 (1,11,5) -6.427677E-04 (1,12,4) 8.226186E-05
(1,11,5): (1,10,5) -1.017530E-02 (1,11,4) 6.427677E-04 (1,11,6) -2.983514E-03 (1,12,5) 6.865497E-04
(1,11,6): (1,10,6) -6.691214E-02 (1,11,5) 2.983514E-03 (1,11,7) 2.983514E-03 (1,12,6) 3.526173E-03
(1,11,7): (1,10,7) -1.017530E-02 (1,11,6) -2.983514E-03 (1,11,8) 6.427679E-04 (1,12,7) 6.865498E-04
(1,11,8): (1,10,8) -1.000162E-03 (1,11,7) -6.427679E-04 (1,11,9) 8.018048E-05 (1,12,8) 8.226226E-05
(1,11,9): (1,10,9) -8.000182E-05 (1,11,8) -8.018048E-05 (1,11,10) 7.712777E-06 (1,12,9) 7.761713E-06
(1,11,10): (1,10,10) -6.021442E-06 (1,11,9) -7.712777E-06 (1,12,10) 6.784343E-07
(1,12,1): (1,11,1) -4.971948E-08 (1,12,2) -6.045737E-08 (1,13,1) 5.237088E-09
(1,12,2): (1,11,2) -6.318443E-07 (1,12,1) 6.045737E-08 (1,12,3) -6.343382E-07 (1,13,2) 5.928898E-08
(1,12,3): (1,11,3) -7.758270E-06 (1,12,2) 6.343382E-07 (1,12,4) -5.679942E-06 (1,13,3) 6.454193E-07
(1,12,4): (1,11,4) -8.226186E-05 (1,12,3) 5.679942E-06 (1,12,5) -3.848014E-05 (1,13,4) 5.954011E-06
(1,12,5): (1,11,5) -6.865497E-04 (1,12,4) 3.848014E-05 (1,12,6) -1.439064E-04 (1,13,5) 4.226163E-05
(1,12,6): (1,11,6) -3.526173E-03 (1,12,5) 1.439064E-04 (1,12,7) 1.439069E-04 (1,13,6) 1.793912E-04
(1,12,7): (1,11,7) -6.865498E-04 (1,12,6) -1.439069E-04 (1,12,8) 3.848056E-05 (1,13,7) 4.226172E-05
(1,12,8): (1,11,8) -8.226226E-05 (1,12,7) -3.848056E-05 (1,12,9) 5.679931E-06 (1,13,8) 5.954195E-06
(1,12,9): (1,11,9) -7.761713E-06 (1,12,8) -5.679931E-06 (1,12,10) 6.294992E-07 (1,13,9) 6.459685E-07
(1,12,10): (1,11,10) -6.784343E-07 (1,12,9) -6.294992E-07 (1,13,10) 6.432024E-08
(1,13,1): (1,12,1) -5.237088E-09 (1,13,2) -6.405480E-09 (1,14,1) 4.775040E-10
(1,13,2): (1,12,2) -5.928898E-08 (1,13,1) 6.405480E-09 (1,13,3) -4.820782E-08 (1,14,2) 4.865934E-09
(1,13,3): (1,12,3) -6.454193E-07 (1,13,2) 4.820782E-08 (1,13,4) -3.713502E-07 (1,14,3) 4.828399E-08
(1,13,4): (1,12,4) -5.954011E-06 (1,13,3) 3.713502E-07 (1,13,5) -2.172528E-06 (1,14,4) 3.957105E-07
(1,13,5): (1,12,5) -4.226163E-05 (1,13,4) 2.172528E-06 (1,13,6) -6.776876E-06 (1,14,5) 2.450019E-06
(1,13,6): (1,12,6) -1.793912E-04 (1,13,5) 6.776876E-06 (1,13,7) 6.777429E-06 (1,14,6) 8.913151E-06
(1,13,7): (1,12,7) -4.226172E-05 (1,13,6) -6.777429E-06 (1,13,8) 2.173035E-06 (1,14,7) 2.450114E-06
(1,13,8): (1,12,8) -5.954195E-06 (1,13,7) -2.173035E-06 (1,13,9) 3.717048E-07 (1,14,8) 3.958759E-07
(1,13,9): (1,12,9) -6.459685E-07 (1,13,8) -3.717048E-07 (1,13,10) 4.785095E-08 (1,14,9) 4.847235E-08
(1,13,10): (1,12,10) -6.432024E-08 (1,13,9) -4.785095E-08 (1,14,10) 5.419315E-09
(1,14,1): (1,13,1) -4.775040E-10 (1,14,2) -2.017050E-09 (1,15,1) 3.741476E-11
(1,14,2): (1,13,2) -4.865934E-09 (1,14,1) 2.017050E-09 (1,14,3) -4.789756E-09 (1,15,2) 3.447373E-10
(1,14,3): (1,13,3) -4.828399E-08 (1,14,2) 4.789756E-09 (1,14,4) -2.392374E-08 (1,15,3) 3.333533E-09
(1,14,4): (1,13,4) -3.957105E-07 (1,14,3) 2.392374E-08 (1,14,5) -1.182198E-07 (1,15,4) 2.468786E-08
(1,14,5): (1,13,5) -2.450019E-06 (1,14,4) 1.182198E-07 (1,14,6) -3.137437E-07 (1,15,5) 1.358159E-07
(1,14,6): (1,13,6) -8.913151E-06 (1,14,5) 3.137437E-07 (1,14,7) 3.143931E-07 (1,15,6) 4.345952E-07
(1,14,7): (1,13,7) -2.450114E-06 (1,14,6) -3.143931E-07 (1,14,8) 1.187964E-07 (1,15,7) 1.358686E-07
(1,14,8): (1,13,8) -3.958759E-07 (1,14,7) -1.187964E-07 (1,14,9) 2.430119E-08 (1,15,8) 2.478879E-08
(1,14,9): (1,13,9) -4.847235E-08 (1,14,8) -2.430119E-08 (1,14,10) 4.797909E-09 (1,15,9) 3.447578E-09
(1,14,10): (1,13,10) -5.419315E-09 (1,14,9) -4.797909E-09 (1,15,10) 4.241636E-10
(1,15,1): (1,14,1) -3.741476E-11 (1,15,2) -1.709727E-09
(1,15,2): (1,14,2) -3.447373E-10 (1,15,1) 1.709727E-09 (1,15,3) -1.800961E-09
(1,15,3): (1,14,3) -3.333533E-09 (1,15,2) 1.800961E-09 (1,15,4) -2.569418E-09
(1,15,4): (1,14,4) -2.468786E-08 (1,15,3) 2.569418E-09 (1,15,5) -7.091680E-09
(1,15,5): (1,14,5) -1.358159E-07 (1,15,4) 7.091680E-09 (1,15,6) -1.496436E-08
(1,15,6): (1,14,6) -4.345952E-07 (1,15,5) 1.496436E-08 (1,15,7) 1.566652E-08
(1,15,7): (1,14,7) -1.358686E-07 (1,15,6) -1.566652E-08 (1,15,8) 7.716535E-09
(1,15,8): (1,14,8) -2.478879E-08 (1,15,7) -7.716535E-09 (1,15,9) 2.959979E-09
(1,15,9): (1,14,9) -3.447578E-09 (1,15,8) -2.959979E-09 (1,15,10) 1.774495E-09
(1,15,10): (1,14,10) -4.241636E-10 (1,15,9) -1.774495E-09

 WEL PACKAGE (WEL-1) FLOW RATES   PERIOD      2   STEP        2
 ----------------------------------------------------------------------------------------
   NUMBER   CELLID                    RATE       NAME                                    
 ----------------------------------------------------------------------------------------
     1      (1,8,6)              -270.00000      WEL                                     
 ----------------------------------------------------------------------------------------




 DRN PACKAGE (DRN-0) FLOW RATES   PERIOD      2   STEP        2
 ----------------------------------------------------------------------------------------
   NUMBER   CELLID                    RATE       NAME                                    
 ----------------------------------------------------------------------------------------
     1      (1,1,1)               0.0000000      SURF                                    
     2      (1,1,2)               0.0000000      SURF                                    
     3      (1,1,3)               0.0000000      SURF                                    
     4      (1,1,4)               0.0000000      SURF                                    
     5      (1,1,5)               0.0000000      SURF                                    
     6      (1,1,6)               0.0000000      SURF                                    
     7      (1,1,7)               0.0000000      SURF                                    
     8      (1,1,8)               0.0000000      SURF                                    
     9      (1,1,9)               0.0000000      SURF                                    
     10     (1,1,10)              0.0000000      SURF                                    
     11     (1,2,1)               0.0000000      SURF                                    
     12     (1,2,2)               0.0000000      SURF                                    
     13     (1,2,3)               0.0000000      SURF                                    
     14     (1,2,4)               0.0000000      SURF                                    
     15     (1,2,5)               0.0000000      SURF                                    
     16     (1,2,6)               0.0000000      SURF                                    
     17     (1,2,7)               0.0000000      SURF                                    
     18     (1,2,8)               0.0000000      SURF                                    
     19     (1,2,9)               0.0000000      SURF                                    
     20     (1,2,10)              0.0000000      SURF                                    
     21     (1,3,1)               0.0000000      SURF                                    
     22     (1,3,2)               0.0000000      SURF                                    
     23     (1,3,3)               0.0000000      SURF                                    
     24     (1,3,4)               0.0000000      SURF                                    
     25     (1,3,5)               0.0000000      SURF                                    
     26     (1,3,6)               0.0000000      SURF                                    
     27     (1,3,7)               0.0000000      SURF                                    
     28     (1,3,8)               0.0000000      SURF                                    
     29     (1,3,9)               0.0000000      SURF                                    
     30     (1,3,10)              0.0000000      SURF                                    
     31     (1,4,1)               0.0000000      SURF                                    
     32     (1,4,2)               0.0000000      SURF                                    
     33     (1,4,3)               0.0000000      SURF                                    
     34     (1,4,4)               0.0000000      SURF                                    
     35     (1,4,5)               0.0000000      SURF                                    
     36     (1,4,6)               0.0000000      SURF                                    
     37     (1,4,7)               0.0000000      SURF                                    
     38     (1,4,8)               0.0000000      SURF                                    
     39     (1,4,9)               0.0000000      SURF                                    
     40     (1,4,10)              0.0000000      SURF                                    
     41     (1,5,1)               0.0000000      SURF                                    
     42     (1,5,2)               0.0000000      SURF                                    
     43     (1,5,3)               0.0000000      SURF                                    
     44     (1,5,4)               0.0000000      SURF                                    
     45     (1,5,5)               0.0000000      SURF                                    
     46     (1,5,6)               0.0000000      SURF                                    
     47     (1,5,7)               0.0000000      SURF                                    
     48     (1,5,8)               0.0000000      SURF                                    
     49     (1,5,9)               0.0000000      SURF                                    
     50     (1,5,10)              0.0000000      SURF                                    
     51     (1,6,1)               0.0000000      SURF                                    
     52     (1,6,2)               0.0000000      SURF                                    
     53     (1,6,3)               0.0000000      SURF                                    
     54     (1,6,4)               0.0000000      SURF                                    
     55     (1,6,5)               0.0000000      SURF                                    
     56     (1,6,6)               0.0000000      SURF                                    
     57     (1,6,7)               0.0000000      SURF                                    
     58     (1,6,8)               0.0000000      SURF                                    
     59     (1,6,9)               0.0000000      SURF                                    
     60     (1,6,10)              0.0000000      SURF                                    
     61     (1,7,1)               0.0000000      SURF                                    
     62     (1,7,2)               0.0000000      SURF                                    
     63     (1,7,3)               0.0000000      SURF                                    
     64     (1,7,4)               0.0000000      SURF                                    
     65     (1,7,5)               0.0000000      SURF                                    
     66     (1,7,6)               0.0000000      SURF                                    
     67     (1,7,7)               0.0000000      SURF                                    
     68     (1,7,8)               0.0000000      SURF                                    
     69     (1,7,9)               0.0000000      SURF                                    
     70     (1,7,10)              0.0000000      SURF                                    
     71     (1,8,1)               0.0000000      SURF                                    
     72     (1,8,2)               0.0000000      SURF                                    
     73     (1,8,3)               0.0000000      SURF                                    
     74     (1,8,4)               0.0000000      SURF                                    
     75     (1,8,5)               0.0000000      SURF                                    
     76     (1,8,6)               0.0000000      SURF                                    
     77     (1,8,7)               0.0000000      SURF                                    
     78     (1,8,8)               0.0000000      SURF                                    
     79     (1,8,9)               0.0000000      SURF                                    
     80     (1,8,10)              0.0000000      SURF                                    
     81     (1,9,1)               0.0000000      SURF                                    
     82     (1,9,2)               0.0000000      SURF                                    
     83     (1,9,3)               0.0000000      SURF                                    
     84     (1,9,4)               0.0000000      SURF                                    
     85     (1,9,5)               0.0000000      SURF                                    
     86     (1,9,6)               0.0000000      SURF                                    
     87     (1,9,7)               0.0000000      SURF                                    
     88     (1,9,8)               0.0000000      SURF                                    
     89     (1,9,9)               0.0000000      SURF                                    
     90     (1,9,10)              0.0000000      SURF                                    
     91     (1,10,1)              0.0000000      SURF                                    
     92     (1,10,2)              0.0000000      SURF                                    
     93     (1,10,3)              0.0000000      SURF                                    
     94     (1,10,4)              0.0000000      SURF                                    
     95     (1,10,5)              0.0000000      SURF                                    
     96     (1,10,6)              0.0000000      SURF                                    
     97     (1,10,7)              0.0000000      SURF                                    
     98     (1,10,8)              0.0000000      SURF                                    
     99     (1,10,9)              0.0000000      SURF                                    
    100     (1,10,10)             0.0000000      SURF                                    
    101     (1,11,1)              0.0000000      SURF                                    
    102     (1,11,2)              0.0000000      SURF                                    
    103     (1,11,3)              0.0000000      SURF                                    
    104     (1,11,4)              0.0000000      SURF                                    
    105     (1,11,5)              0.0000000      SURF                                    
    106     (1,11,6)              0.0000000      SURF                                    
    107     (1,11,7)              0.0000000      SURF                                    
    108     (1,11,8)              0.0000000      SURF                                    
    109     (1,11,9)              0.0000000      SURF                                    
    110     (1,11,10)             0.0000000      SURF                                    
    111     (1,12,1)              0.0000000      SURF                                    
    112     (1,12,2)              0.0000000      SURF                                    
    113     (1,12,3)              0.0000000      SURF                                    
    114     (1,12,4)              0.0000000      SURF                                    
    115     (1,12,5)              0.0000000      SURF                                    
    116     (1,12,6)              0.0000000      SURF                                    
    117     (1,12,7)              0.0000000      SURF                                    
    118     (1,12,8)              0.0000000      SURF                                    
    119     (1,12,9)              0.0000000      SURF                                    
    120     (1,12,10)             0.0000000      SURF                                    
    121     (1,13,1)              0.0000000      SURF                                    
    122     (1,13,2)              0.0000000      SURF                                    
    123     (1,13,3)              0.0000000      SURF                                    
    124     (1,13,4)              0.0000000      SURF                                    
    125     (1,13,5)              0.0000000      SURF                                    
    126     (1,13,6)              0.0000000      SURF                                    
    127     (1,13,7)              0.0000000      SURF                                    
    128     (1,13,8)              0.0000000      SURF                                    
    129     (1,13,9)              0.0000000      SURF                                    
    130     (1,13,10)             0.0000000      SURF                                    
    131     (1,14,1)              0.0000000      SURF                                    
    132     (1,14,2)              0.0000000      SURF                                    
    133     (1,14,3)              0.0000000      SURF                                    
    134     (1,14,4)              0.0000000      SURF                                    
    135     (1,14,5)              0.0000000      SURF                                    
    136     (1,14,6)              0.0000000      SURF                                    
    137     (1,14,7)              0.0000000      SURF                                    
    138     (1,14,8)              0.0000000      SURF                                    
    139     (1,14,9)              0.0000000      SURF                                    
    140     (1,14,10)             0.0000000      SURF                                    
    141     (1,15,1)              0.0000000      SURF                                    
    142     (1,15,2)              0.0000000      SURF                                    
    143     (1,15,3)              0.0000000      SURF                                    
    144     (1,15,4)              0.0000000      SURF                                    
    145     (1,15,5)              0.0000000      SURF                                    
    146     (1,15,6)              0.0000000      SURF                                    
    147     (1,15,7)              0.0000000      SURF                                    
    148     (1,15,8)              0.0000000      SURF                                    
    149     (1,15,9)              0.0000000      SURF                                    
    150     (1,15,10)             0.0000000      SURF                                    
 ----------------------------------------------------------------------------------------




 API PACKAGE (MAR) FLOW RATES   PERIOD      2   STEP        2
 -----------------------------------------------
   NUMBER   CELLID                    RATE      
 -----------------------------------------------
     1      (1,6,5)               90.000000     
     2      (1,6,6)               90.000000     
     3      (1,6,7)               90.000000     
     4      (1,10,5)              0.0000000     
     5      (1,10,6)              0.0000000     
     6      (1,10,7)              0.0000000     
 -----------------------------------------------



1
  HEAD IN LAYER   1 AT END OF TIME STEP   2 IN STRESS PERIOD    2
  ---------------------------------------------------------------------------

            1           2           3           4           5           6           7           8           9          10
 ........................................................................................................................
   1   4.3066E-11  4.4106E-10  2.5900E-09  1.6170E-08  7.0560E-08  8.0738E-08  7.0517E-08  1.6079E-08  2.4491E-09  2.8770E-10
   2   3.1899E-10  3.5728E-09  3.5408E-08  2.8880E-07  1.5164E-06  1.7100E-06  1.5163E-06  2.8867E-07  3.5254E-08  3.6625E-09
   3   3.5336E-09  4.5503E-08  5.4790E-07  5.3613E-06  3.4363E-05  3.8061E-05  3.4363E-05  5.3612E-06  5.4795E-07  4.8608E-08
   4   3.5403E-08  5.3475E-07  7.7175E-06  9.3624E-05  7.8079E-04  8.4640E-04  7.8079E-04  9.3624E-05  7.7193E-06  5.6792E-07
   5   2.7739E-07  5.0526E-06  9.0764E-05  1.4556E-03  1.7757E-02  1.8761E-02  1.7757E-02  1.4556E-03  9.0777E-05  5.3159E-06
   6   1.3075E-06  2.9914E-05  7.1304E-04  1.6983E-02  0.3911      0.4005      0.3911      1.6983E-02  7.1309E-04  3.1166E-05
   7   8.9372E-09  6.3149E-07  1.8367E-05  3.7164E-04  3.8644E-03 -0.1079      3.8644E-03  3.7164E-04  1.8366E-05  6.4126E-07
   8  -9.4708E-07 -1.8341E-05 -3.6379E-04 -6.9704E-03 -0.1264      -2.093     -0.1264     -6.9704E-03 -3.6383E-04 -1.9242E-05
   9  -2.7039E-07 -4.4436E-06 -7.2656E-05 -1.0868E-03 -1.3943E-02 -0.1271     -1.3943E-02 -1.0868E-03 -7.2670E-05 -4.6990E-06
  10  -4.4608E-08 -6.3528E-07 -8.8438E-06 -1.0888E-04 -1.0907E-03 -7.0630E-03 -1.0907E-03 -1.0888E-04 -8.8463E-06 -6.7702E-07
  11  -5.5648E-09 -6.9823E-08 -8.4590E-07 -8.8642E-06 -7.3141E-05 -3.7149E-04 -7.3141E-05 -8.8642E-06 -8.4616E-07 -7.4879E-08
  12  -5.9281E-10 -6.6385E-09 -7.0072E-08 -6.3807E-07 -4.4861E-06 -1.8877E-05 -4.4860E-06 -6.3798E-07 -6.9986E-08 -7.0358E-09
  13  -6.9103E-11 -7.0965E-10 -5.5304E-09 -4.2665E-08 -2.5992E-07 -9.3761E-07 -2.5986E-07 -4.2559E-08 -5.3889E-09 -6.0382E-10
  14  -2.1353E-11 -2.2306E-10 -7.0203E-10 -3.0944E-09 -1.4916E-08 -4.6291E-08 -1.4851E-08 -2.9718E-09 -5.4168E-10 -6.1890E-11
  15  -1.7611E-11 -1.8858E-10 -3.6868E-10 -6.2562E-10 -1.3348E-09 -2.8312E-09 -1.2646E-09 -4.9292E-10 -1.9692E-10 -1.9473E-11

 HEAD WILL BE SAVED ON UNIT 1100 AT END OF TIME STEP    2, STRESS PERIOD    2


  VOLUME BUDGET FOR ENTIRE MODEL AT END OF TIME STEP    2, STRESS PERIOD   2
  ---------------------------------------------------------------------------------------------------

     CUMULATIVE VOLUME      L**3       RATES FOR THIS TIME STEP      L**3/T          PACKAGE NAME    
     ------------------                 ------------------------                     ----------------

           IN:                                      IN:
           ---                                      ---
              STO-SS =           2.4252                STO-SS =           0.1141     STORAGE                          
              STO-SY =        5294.7128                STO-SY =         259.5998     STORAGE                          
                 WEL =           0.0000                   WEL =           0.0000     WEL-1                            
                 DRN =           0.0000                   DRN =           0.0000     DRN-0                            
                 API =        2700.0000                   API =         270.0000     MAR                              
                 CHD =       2.0279E-08                   CHD =           0.0000     CHD_0                            

            TOTAL IN =        7997.1381              TOTAL IN =         529.7138

          OUT:                                     OUT:
          ----                                     ----
              STO-SS =           1.3213                STO-SS =           0.1321     STORAGE                          
              STO-SY =        2595.8168                STO-SY =         259.5817     STORAGE                          
                 WEL =        5400.0000                   WEL =         270.0000     WEL-1                            
                 DRN =           0.0000                   DRN =           0.0000     DRN-0                            
                 API =           0.0000                   API =           0.0000     MAR                              
                 CHD =       2.0705E-08                   CHD =           0.0000     CHD_0                            

           TOTAL OUT =        7997.1381             TOTAL OUT =         529.7138

            IN - OUT =      -1.7199E-09              IN - OUT =      -3.4106E-11

 PERCENT DISCREPANCY =          -0.00     PERCENT DISCREPANCY =          -0.00




         TIME SUMMARY AT END OF TIME STEP    2 IN STRESS PERIOD    2
                    SECONDS     MINUTES      HOURS       DAYS        YEARS
                    -----------------------------------------------------------
   TIME STEP LENGTH 8.64000E+05  14400.      240.00      10.000     2.73785E-02
 STRESS PERIOD TIME 1.72800E+06  28800.      480.00      20.000     5.47570E-02
         TOTAL TIME 1.81440E+06  30240.      504.00      21.000     5.74949E-02


end timestep


start timestep kper="2" kstp="3" mode="normal"

 UBDSV1 SAVING           STO-SS ON UNIT   1099 AT TIME STEP      3, STRESS PERIOD      2
 UBDSV1 SAVING           STO-SY ON UNIT   1099 AT TIME STEP      3, STRESS PERIOD      2
 UBDSV1 SAVING     FLOW-JA-FACE ON UNIT   1099 AT TIME STEP      3, STRESS PERIOD      2
 UBDSV06 SAVING       DATA-SPDIS IN MODEL GWF              PACKAGE NPF             CONNECTED TO MODEL GWF              PACKAGE NPF              ON UNIT   1099 AT TIME STEP      3, STRESS PERIOD      2
 UBDSV06 SAVING              WEL IN MODEL GWF              PACKAGE GWF             CONNECTED TO MODEL GWF              PACKAGE WEL-1            ON UNIT   1099 AT TIME STEP      3, STRESS PERIOD      2
 UBDSV06 SAVING              DRN IN MODEL GWF              PACKAGE GWF             CONNECTED TO MODEL GWF              PACKAGE DRN-0            ON UNIT   1099 AT TIME STEP      3, STRESS PERIOD      2
 UBDSV06 SAVING              API IN MODEL GWF              PACKAGE GWF             CONNECTED TO MODEL GWF              PACKAGE MAR              ON UNIT   1099 AT TIME STEP      3, STRESS PERIOD      2
 UBDSV06 SAVING              CHD IN MODEL GWF              PACKAGE GWF             CONNECTED TO MODEL GWF              PACKAGE CHD_0            ON UNIT   1099 AT TIME STEP      3, STRESS PERIOD      2

    CALCULATED INTERCELL FLOW FOR PERIOD 2 STEP 3
(1,1,1): (1,1,2) 2.079741E-08 (1,2,1) 2.406683E-08
(1,1,2): (1,1,1) -2.079741E-08 (1,1,3) 1.570955E-07 (1,2,2) 2.450839E-07
(1,1,3): (1,1,2) -1.570955E-07 (1,1,4) 9.492909E-07 (1,2,3) 2.302664E-06
(1,1,4): (1,1,3) -9.492909E-07 (1,1,5) 3.389973E-06 (1,2,4) 1.693207E-05
(1,1,5): (1,1,4) -3.389973E-06 (1,1,6) 7.427432E-07 (1,2,5) 7.896989E-05
(1,1,6): (1,1,5) -7.427432E-07 (1,1,7) -7.431883E-07 (1,2,6) 9.063439E-05
(1,1,7): (1,1,6) 7.431883E-07 (1,1,8) -3.390443E-06 (1,2,7) 7.896969E-05
(1,1,8): (1,1,7) 3.390443E-06 (1,1,9) -9.496056E-07 (1,2,8) 1.693188E-05
(1,1,9): (1,1,8) 9.496056E-07 (1,1,10) -1.553469E-07 (1,2,9) 2.304182E-06
(1,1,10): (1,1,9) 1.553469E-07 (1,2,10) 2.670878E-07
(1,2,1): (1,1,1) -2.406683E-08 (1,2,2) 2.418144E-07 (1,3,1) 2.534813E-07
(1,2,2): (1,1,2) -2.450839E-07 (1,2,1) -2.418144E-07 (1,2,3) 2.214675E-06 (1,3,2) 2.931064E-06
(1,2,3): (1,1,3) -2.302664E-06 (1,2,2) -2.214675E-06 (1,2,4) 1.557869E-05 (1,3,3) 3.154298E-05
(1,2,4): (1,1,4) -1.693207E-05 (1,2,3) -1.557869E-05 (1,2,5) 6.542779E-05 (1,3,4) 2.707132E-04
(1,2,5): (1,1,5) -7.896989E-05 (1,2,4) -6.542779E-05 (1,2,6) 1.240723E-05 (1,3,5) 1.499196E-03
(1,2,6): (1,1,6) -9.063439E-05 (1,2,5) -1.240723E-05 (1,2,7) -1.240788E-05 (1,3,6) 1.692179E-03
(1,2,7): (1,1,7) -7.896969E-05 (1,2,6) 1.240788E-05 (1,2,8) -6.542824E-05 (1,3,7) 1.499196E-03
(1,2,8): (1,1,8) -1.693188E-05 (1,2,7) 6.542824E-05 (1,2,9) -1.557731E-05 (1,3,8) 2.707143E-04
(1,2,9): (1,1,9) -2.304182E-06 (1,2,8) 1.557731E-05 (1,2,10) -2.192441E-06 (1,3,9) 3.156019E-05
(1,2,10): (1,1,10) -2.670878E-07 (1,2,9) 2.192441E-06 (1,3,10) 3.166205E-06
(1,3,1): (1,2,1) -2.534813E-07 (1,3,2) 2.919398E-06 (1,4,1) 2.234231E-06
(1,3,2): (1,2,2) -2.931064E-06 (1,3,1) -2.919398E-06 (1,3,3) 3.082659E-05 (1,4,2) 2.994302E-05
(1,3,3): (1,2,3) -3.154298E-05 (1,3,2) -3.082659E-05 (1,3,4) 2.547488E-04 (1,4,3) 3.788504E-04
(1,3,4): (1,2,4) -2.707132E-04 (1,3,3) -2.547488E-04 (1,3,5) 1.293908E-03 (1,4,4) 3.937127E-03
(1,3,5): (1,2,5) -1.499196E-03 (1,3,4) -1.293908E-03 (1,3,6) 2.053869E-04 (1,4,5) 2.738082E-02
(1,3,6): (1,2,6) -1.692179E-03 (1,3,5) -2.053869E-04 (1,3,7) -2.053875E-04 (1,4,6) 3.026569E-02
(1,3,7): (1,2,7) -1.499196E-03 (1,3,6) 2.053875E-04 (1,3,8) -1.293908E-03 (1,4,7) 2.738082E-02
(1,3,8): (1,2,8) -2.707143E-04 (1,3,7) 1.293908E-03 (1,3,9) -2.547314E-04 (1,4,8) 3.937135E-03
(1,3,9): (1,2,9) -3.156019E-05 (1,3,8) 2.547314E-04 (1,3,10) -3.058642E-05 (1,4,9) 3.789857E-04
(1,3,10): (1,2,10) -3.166205E-06 (1,3,9) 3.058642E-05 (1,4,10) 3.203352E-05
(1,4,1): (1,3,1) -2.234231E-06 (1,4,2) 3.062818E-05 (1,5,1) 1.483618E-05
(1,4,2): (1,3,2) -2.994302E-05 (1,4,1) -3.062818E-05 (1,4,3) 3.797340E-04 (1,5,2) 2.370175E-04
(1,4,3): (1,3,3) -3.788504E-04 (1,4,2) -3.797340E-04 (1,4,4) 3.813021E-03 (1,5,3) 3.662917E-03
(1,4,4): (1,3,4) -3.937127E-03 (1,4,3) -3.813021E-03 (1,4,5) 2.473699E-02 (1,5,4) 4.883593E-02
(1,4,5): (1,3,5) -2.738082E-02 (1,4,4) -2.473699E-02 (1,4,6) 3.089470E-03 (1,5,5) 0.472193
(1,4,6): (1,3,6) -3.026569E-02 (1,4,5) -3.089470E-03 (1,4,7) -3.089470E-03 (1,5,6) 0.508282
(1,4,7): (1,3,7) -2.738082E-02 (1,4,6) 3.089470E-03 (1,4,8) -2.473698E-02 (1,5,7) 0.472193
(1,4,8): (1,3,8) -3.937135E-03 (1,4,7) 2.473698E-02 (1,4,9) -3.812876E-03 (1,5,8) 4.883597E-02
(1,4,9): (1,3,9) -3.789857E-04 (1,4,8) 3.812876E-03 (1,4,10) -3.775386E-04 (1,5,9) 3.663701E-03
(1,4,10): (1,3,10) -3.203352E-05 (1,4,9) 3.775386E-04 (1,5,10) 2.510260E-04
(1,5,1): (1,4,1) -1.483618E-05 (1,5,2) 2.528096E-04 (1,6,1) 5.370733E-05
(1,5,2): (1,4,2) -2.370175E-04 (1,5,1) -2.528096E-04 (1,5,3) 3.805639E-03 (1,6,2) 1.079058E-03
(1,5,3): (1,4,3) -3.662917E-03 (1,5,2) -3.805639E-03 (1,5,4) 4.898610E-02 (1,6,3) 2.187426E-02
(1,5,4): (1,4,4) -4.883593E-02 (1,5,3) -4.898610E-02 (1,5,5) 0.447993 (1,6,4) 0.419802
(1,5,5): (1,4,5) -0.472193 (1,5,4) -0.447993 (1,5,6) 3.901170E-02 (1,6,5) 7.30908
(1,5,6): (1,4,6) -0.508282 (1,5,5) -3.901170E-02 (1,5,7) -3.901170E-02 (1,6,6) 7.58987
(1,5,7): (1,4,7) -0.472193 (1,5,6) 3.901170E-02 (1,5,8) -0.447993 (1,6,7) 7.30908
(1,5,8): (1,4,8) -4.883597E-02 (1,5,7) 0.447993 (1,5,9) -4.898521E-02 (1,6,8) 0.419802
(1,5,9): (1,4,9) -3.663701E-03 (1,5,8) 4.898521E-02 (1,5,10) -3.790218E-03 (1,6,9) 2.187664E-02
(1,5,10): (1,4,10) -2.510260E-04 (1,5,9) 3.790218E-03 (1,6,10) 1.130280E-03
(1,6,1): (1,5,1) -5.370733E-05 (1,6,2) 1.278163E-03 (1,7,1) -6.421355E-05
(1,6,2): (1,5,2) -1.079058E-03 (1,6,1) -1.278163E-03 (1,6,3) 2.460141E-02 (1,7,2) -1.232378E-03
(1,6,3): (1,5,3) -2.187426E-02 (1,6,2) -2.460141E-02 (1,6,4) 0.447021 (1,7,3) -2.407981E-02
(1,6,4): (1,5,4) -0.419802 (1,6,3) -0.447021 (1,6,5) 7.33906 (1,7,4) -0.448391
(1,6,5): (1,5,5) -7.30908 (1,6,4) -7.33906 (1,6,6) 0.303329 (1,7,5) -7.63721
(1,6,6): (1,5,6) -7.58987 (1,6,5) -0.303329 (1,6,7) -0.303329 (1,7,6) -10.0314
(1,6,7): (1,5,7) -7.30908 (1,6,6) 0.303329 (1,6,8) -7.33906 (1,7,7) -7.63721
(1,6,8): (1,5,8) -0.419802 (1,6,7) 7.33906 (1,6,9) -0.447017 (1,7,8) -0.448392
(1,6,9): (1,5,9) -2.187664E-02 (1,6,8) 0.447017 (1,6,10) -2.453713E-02 (1,7,9) -2.408279E-02
(1,6,10): (1,5,10) -1.130280E-03 (1,6,9) 2.453713E-02 (1,7,10) -1.293463E-03
(1,7,1): (1,6,1) 6.421355E-05 (1,7,2) 1.099980E-04 (1,8,1) -3.904295E-05
(1,7,2): (1,6,2) 1.232378E-03 (1,7,1) -1.099980E-04 (1,7,3) 1.753860E-03 (1,8,2) -6.645857E-04
(1,7,3): (1,6,3) 2.407981E-02 (1,7,2) -1.753860E-03 (1,7,4) 2.271480E-02 (1,8,3) -1.128391E-02
(1,7,4): (1,6,4) 0.448391 (1,7,3) -2.271480E-02 (1,7,5) 0.168774 (1,8,4) -0.176973
(1,7,5): (1,6,5) 7.63721 (1,7,4) -0.168774 (1,7,6) -1.92835 (1,8,5) -2.45084
(1,7,6): (1,6,6) 10.0314 (1,7,5) 1.92835 (1,7,7) 1.92835 (1,8,6) -26.9371
(1,7,7): (1,6,7) 7.63721 (1,7,6) -1.92835 (1,7,8) -0.168774 (1,8,7) -2.45084
(1,7,8): (1,6,8) 0.448392 (1,7,7) 0.168774 (1,7,9) -2.271449E-02 (1,8,8) -0.176973
(1,7,9): (1,6,9) 2.408279E-02 (1,7,8) 2.271449E-02 (1,7,10) -1.747700E-03 (1,8,9) -1.128589E-02
(1,7,10): (1,6,10) 1.293463E-03 (1,7,9) 1.747700E-03 (1,8,10) -7.015380E-04
(1,8,1): (1,7,1) 3.904295E-05 (1,8,2) -5.155440E-04 (1,9,1) 2.171801E-05
(1,8,2): (1,7,2) 6.645857E-04 (1,8,1) 5.155440E-04 (1,8,3) -8.865235E-03 (1,9,2) 3.948122E-04
(1,8,3): (1,7,3) 1.128391E-02 (1,8,2) 8.865235E-03 (1,8,4) -0.142923 (1,9,3) 7.213000E-03
(1,8,4): (1,7,4) 0.176973 (1,8,3) 0.142923 (1,8,5) -2.09754 (1,9,4) 0.123905
(1,8,5): (1,7,5) 2.45084 (1,8,4) 2.09754 (1,8,6) -26.2844 (1,9,5) 1.94021
(1,8,6): (1,7,6) 26.9371 (1,8,5) 26.2844 (1,8,7) 26.2844 (1,9,6) 26.2502
(1,8,7): (1,7,7) 2.45084 (1,8,6) -26.2844 (1,8,8) 2.09754 (1,9,7) 1.94021
(1,8,8): (1,7,8) 0.176973 (1,8,7) -2.09754 (1,8,9) 0.142922 (1,9,8) 0.123905
(1,8,9): (1,7,9) 1.128589E-02 (1,8,8) -0.142922 (1,8,10) 8.836421E-03 (1,9,9) 7.214045E-03
(1,8,10): (1,7,10) 7.015380E-04 (1,8,9) -8.836421E-03 (1,9,10) 4.154317E-04
(1,9,1): (1,8,1) -2.171801E-05 (1,9,2) -1.424493E-04 (1,10,1) 8.556909E-06
(1,9,2): (1,8,2) -3.948122E-04 (1,9,1) 1.424493E-04 (1,9,3) -2.046934E-03 (1,10,2) 1.283376E-04
(1,9,3): (1,8,3) -7.213000E-03 (1,9,2) 2.046934E-03 (1,9,4) -2.620923E-02 (1,10,3) 1.894371E-03
(1,9,4): (1,8,4) -0.123905 (1,9,3) 2.620923E-02 (1,9,5) -0.278413 (1,10,4) 2.510091E-02
(1,9,5): (1,8,5) -1.94021 (1,9,4) 0.278413 (1,9,6) -1.96754 (1,10,5) 0.278207
(1,9,6): (1,8,6) -26.2502 (1,9,5) 1.96754 (1,9,7) 1.96754 (1,10,6) 2.12067
(1,9,7): (1,8,7) -1.94021 (1,9,6) -1.96754 (1,9,8) 0.278413 (1,10,7) 0.278207
(1,9,8): (1,8,8) -0.123905 (1,9,7) -0.278413 (1,9,9) 2.620866E-02 (1,10,8) 2.510094E-02
(1,9,9): (1,8,9) -7.214045E-03 (1,9,8) -2.620866E-02 (1,9,10) 2.037697E-03 (1,10,9) 1.894852E-03
(1,9,10): (1,8,10) -4.154317E-04 (1,9,9) -2.037697E-03 (1,10,10) 1.363855E-04
(1,10,1): (1,9,1) -8.556909E-06 (1,10,2) -2.266861E-05 (1,11,1) 1.660091E-06
(1,10,2): (1,9,2) -1.283376E-04 (1,10,1) 2.266861E-05 (1,10,3) -2.808981E-04 (1,11,2) 2.159592E-05
(1,10,3): (1,9,3) -1.894371E-03 (1,10,2) 2.808981E-04 (1,10,4) -3.002432E-03 (1,11,3) 2.726843E-04
(1,10,4): (1,9,4) -2.510091E-02 (1,10,3) 3.002432E-03 (1,10,5) -2.530730E-02 (1,11,4) 3.001007E-03
(1,10,5): (1,9,5) -0.278207 (1,10,4) 2.530730E-02 (1,10,6) -0.127849 (1,11,5) 2.638569E-02
(1,10,6): (1,9,6) -2.12067 (1,10,5) 0.127849 (1,10,7) 0.127849 (1,11,6) 0.146664
(1,10,7): (1,9,7) -0.278207 (1,10,6) -0.127849 (1,10,8) 2.530729E-02 (1,11,7) 2.638569E-02
(1,10,8): (1,9,8) -2.510094E-02 (1,10,7) -2.530729E-02 (1,10,9) 3.002318E-03 (1,11,8) 3.001014E-03
(1,10,9): (1,9,9) -1.894852E-03 (1,10,8) -3.002318E-03 (1,10,10) 2.792284E-04 (1,11,9) 2.727888E-04
(1,10,10): (1,9,10) -1.363855E-04 (1,10,9) -2.792284E-04 (1,11,10) 2.314507E-05
(1,11,1): (1,10,1) -1.660091E-06 (1,11,2) -2.732780E-06 (1,12,1) 2.333933E-07
(1,11,2): (1,10,2) -2.159592E-05 (1,11,1) 2.732780E-06 (1,11,3) -2.980972E-05 (1,12,2) 2.688490E-06
(1,11,3): (1,10,3) -2.726843E-04 (1,11,2) 2.980972E-05 (1,11,4) -2.741094E-04 (1,12,3) 2.979978E-05
(1,11,4): (1,10,4) -3.001007E-03 (1,11,3) 2.741094E-04 (1,11,5) -1.922868E-03 (1,12,4) 2.821205E-04
(1,11,5): (1,10,5) -2.638569E-02 (1,11,4) 1.922868E-03 (1,11,6) -7.593632E-03 (1,12,5) 2.073885E-03
(1,11,6): (1,10,6) -0.146664 (1,11,5) 7.593632E-03 (1,11,7) 7.593633E-03 (1,12,6) 9.242717E-03
(1,11,7): (1,10,7) -2.638569E-02 (1,11,6) -7.593633E-03 (1,11,8) 1.922867E-03 (1,12,7) 2.073885E-03
(1,11,8): (1,10,8) -3.001014E-03 (1,11,7) -1.922867E-03 (1,11,9) 2.740926E-04 (1,12,8) 2.821219E-04
(1,11,9): (1,10,9) -2.727888E-04 (1,11,8) -2.740926E-04 (1,11,10) 2.958462E-05 (1,12,9) 2.981616E-05
(1,11,10): (1,10,10) -2.314507E-05 (1,11,9) -2.958462E-05 (1,12,10) 2.904823E-06
(1,12,1): (1,11,1) -2.333933E-07 (1,12,2) -2.776833E-07 (1,13,1) 2.691263E-08
(1,12,2): (1,11,2) -2.688490E-06 (1,12,1) 2.776833E-07 (1,12,3) -2.698428E-06 (1,13,2) 2.783771E-07
(1,12,3): (1,11,3) -2.979978E-05 (1,12,2) 2.698428E-06 (1,12,4) -2.178869E-05 (1,13,3) 2.756739E-06
(1,12,4): (1,11,4) -2.821205E-04 (1,12,3) 2.178869E-05 (1,12,5) -1.311066E-04 (1,13,4) 2.296885E-05
(1,12,5): (1,11,5) -2.073885E-03 (1,12,4) 1.311066E-04 (1,12,6) -4.249180E-04 (1,13,5) 1.457687E-04
(1,12,6): (1,11,6) -9.242717E-03 (1,12,5) 4.249180E-04 (1,12,7) 4.249185E-04 (1,13,6) 5.478957E-04
(1,12,7): (1,11,7) -2.073885E-03 (1,12,6) -4.249185E-04 (1,12,8) 1.311069E-04 (1,13,7) 1.457688E-04
(1,12,8): (1,11,8) -2.821219E-04 (1,12,7) -1.311069E-04 (1,12,9) 2.178696E-05 (1,13,8) 2.296916E-05
(1,12,9): (1,11,9) -2.981616E-05 (1,12,8) -2.178696E-05 (1,12,10) 2.673280E-06 (1,13,9) 2.758945E-06
(1,12,10): (1,11,10) -2.904823E-06 (1,12,9) -2.673280E-06 (1,13,10) 3.032904E-07
(1,13,1): (1,12,1) -2.691263E-08 (1,13,2) -2.621882E-08 (1,14,1) 2.695761E-09
(1,13,2): (1,12,2) -2.783771E-07 (1,13,1) 2.621882E-08 (1,13,3) -2.200653E-07 (1,14,2) 2.532258E-08
(1,13,3): (1,12,3) -2.756739E-06 (1,13,2) 2.200653E-07 (1,13,4) -1.576584E-06 (1,14,3) 2.274874E-07
(1,13,4): (1,12,4) -2.296885E-05 (1,13,3) 1.576584E-06 (1,13,5) -8.306811E-06 (1,14,4) 1.696567E-06
(1,13,5): (1,12,5) -1.457687E-04 (1,13,4) 8.306811E-06 (1,13,6) -2.279147E-05 (1,14,5) 9.503767E-06
(1,13,6): (1,12,6) -5.478957E-04 (1,13,5) 2.279147E-05 (1,13,7) 2.279202E-05 (1,14,6) 3.111045E-05
(1,13,7): (1,12,7) -1.457688E-04 (1,13,6) -2.279202E-05 (1,13,8) 8.307298E-06 (1,14,7) 9.503860E-06
(1,13,8): (1,12,8) -2.296916E-05 (1,13,7) -8.307298E-06 (1,13,9) 1.576740E-06 (1,14,8) 1.696741E-06
(1,13,9): (1,12,9) -2.758945E-06 (1,13,8) -1.576740E-06 (1,13,10) 2.176253E-07 (1,14,9) 2.278560E-07
(1,13,10): (1,12,10) -3.032904E-07 (1,13,9) -2.176253E-07 (1,14,10) 2.789743E-08
(1,14,1): (1,13,1) -2.695761E-09 (1,14,2) -3.592001E-09 (1,15,1) 2.395704E-10
(1,14,2): (1,13,2) -2.532258E-08 (1,14,1) 3.592001E-09 (1,14,3) -1.790043E-08 (1,15,2) 2.067641E-09
(1,14,3): (1,13,3) -2.274874E-07 (1,14,2) 1.790043E-08 (1,14,4) -1.075045E-07 (1,15,3) 1.718337E-08
(1,14,4): (1,13,4) -1.696567E-06 (1,14,3) 1.075045E-07 (1,14,5) -4.996110E-07 (1,15,4) 1.163137E-07
(1,14,5): (1,13,5) -9.503767E-06 (1,14,4) 4.996110E-07 (1,14,6) -1.184787E-06 (1,15,5) 5.849396E-07
(1,14,6): (1,13,6) -3.111045E-05 (1,14,5) 1.184787E-06 (1,14,7) 1.185430E-06 (1,15,6) 1.706648E-06
(1,14,7): (1,13,7) -9.503860E-06 (1,14,6) -1.185430E-06 (1,14,8) 5.001789E-07 (1,15,7) 5.849915E-07
(1,14,8): (1,13,8) -1.696741E-06 (1,14,7) -5.001789E-07 (1,14,9) 1.078552E-07 (1,15,8) 1.164125E-07
(1,14,9): (1,13,9) -2.278560E-07 (1,14,8) -1.078552E-07 (1,14,10) 1.766670E-08 (1,15,9) 1.730895E-08
(1,14,10): (1,13,10) -2.789743E-08 (1,14,9) -1.766670E-08 (1,15,10) 2.333484E-09
(1,15,1): (1,14,1) -2.395704E-10 (1,15,2) -1.763931E-09
(1,15,2): (1,14,2) -2.067641E-09 (1,15,1) 1.763931E-09 (1,15,3) -2.784706E-09
(1,15,3): (1,14,3) -1.718337E-08 (1,15,2) 2.784706E-09 (1,15,4) -8.374106E-09
(1,15,4): (1,14,4) -1.163137E-07 (1,15,3) 8.374106E-09 (1,15,5) -3.098513E-08
(1,15,5): (1,14,5) -5.849396E-07 (1,15,4) 3.098513E-08 (1,15,6) -6.307842E-08
(1,15,6): (1,14,6) -1.706648E-06 (1,15,5) 6.307842E-08 (1,15,7) 6.377393E-08
(1,15,7): (1,14,7) -5.849915E-07 (1,15,6) -6.377393E-08 (1,15,8) 3.159983E-08
(1,15,8): (1,14,8) -1.164125E-07 (1,15,7) -3.159983E-08 (1,15,9) 8.751660E-09
(1,15,9): (1,14,9) -1.730895E-08 (1,15,8) -8.751660E-09 (1,15,10) 2.691242E-09
(1,15,10): (1,14,10) -2.333484E-09 (1,15,9) -2.691242E-09

 WEL PACKAGE (WEL-1) FLOW RATES   PERIOD      2   STEP        3
 ----------------------------------------------------------------------------------------
   NUMBER   CELLID                    RATE       NAME                                    
 ----------------------------------------------------------------------------------------
     1      (1,8,6)              -270.00000      WEL                                     
 ----------------------------------------------------------------------------------------




 DRN PACKAGE (DRN-0) FLOW RATES   PERIOD      2   STEP        3
 ----------------------------------------------------------------------------------------
   NUMBER   CELLID                    RATE       NAME                                    
 ----------------------------------------------------------------------------------------
     1      (1,1,1)               0.0000000      SURF                                    
     2      (1,1,2)               0.0000000      SURF                                    
     3      (1,1,3)               0.0000000      SURF                                    
     4      (1,1,4)               0.0000000      SURF                                    
     5      (1,1,5)               0.0000000      SURF                                    
     6      (1,1,6)               0.0000000      SURF                                    
     7      (1,1,7)               0.0000000      SURF                                    
     8      (1,1,8)               0.0000000      SURF                                    
     9      (1,1,9)               0.0000000      SURF                                    
     10     (1,1,10)              0.0000000      SURF                                    
     11     (1,2,1)               0.0000000      SURF                                    
     12     (1,2,2)               0.0000000      SURF                                    
     13     (1,2,3)               0.0000000      SURF                                    
     14     (1,2,4)               0.0000000      SURF                                    
     15     (1,2,5)               0.0000000      SURF                                    
     16     (1,2,6)               0.0000000      SURF                                    
     17     (1,2,7)               0.0000000      SURF                                    
     18     (1,2,8)               0.0000000      SURF                                    
     19     (1,2,9)               0.0000000      SURF                                    
     20     (1,2,10)              0.0000000      SURF                                    
     21     (1,3,1)               0.0000000      SURF                                    
     22     (1,3,2)               0.0000000      SURF                                    
     23     (1,3,3)               0.0000000      SURF                                    
     24     (1,3,4)               0.0000000      SURF                                    
     25     (1,3,5)               0.0000000      SURF                                    
     26     (1,3,6)               0.0000000      SURF                                    
     27     (1,3,7)               0.0000000      SURF                                    
     28     (1,3,8)               0.0000000      SURF                                    
     29     (1,3,9)               0.0000000      SURF                                    
     30     (1,3,10)              0.0000000      SURF                                    
     31     (1,4,1)               0.0000000      SURF                                    
     32     (1,4,2)               0.0000000      SURF                                    
     33     (1,4,3)               0.0000000      SURF                                    
     34     (1,4,4)               0.0000000      SURF                                    
     35     (1,4,5)               0.0000000      SURF                                    
     36     (1,4,6)               0.0000000      SURF                                    
     37     (1,4,7)               0.0000000      SURF                                    
     38     (1,4,8)               0.0000000      SURF                                    
     39     (1,4,9)               0.0000000      SURF                                    
     40     (1,4,10)              0.0000000      SURF                                    
     41     (1,5,1)               0.0000000      SURF                                    
     42     (1,5,2)               0.0000000      SURF                                    
     43     (1,5,3)               0.0000000      SURF                                    
     44     (1,5,4)               0.0000000      SURF                                    
     45     (1,5,5)               0.0000000      SURF                                    
     46     (1,5,6)               0.0000000      SURF                                    
     47     (1,5,7)               0.0000000      SURF                                    
     48     (1,5,8)               0.0000000      SURF                                    
     49     (1,5,9)               0.0000000      SURF                                    
     50     (1,5,10)              0.0000000      SURF                                    
     51     (1,6,1)               0.0000000      SURF                                    
     52     (1,6,2)               0.0000000      SURF                                    
     53     (1,6,3)               0.0000000      SURF                                    
     54     (1,6,4)               0.0000000      SURF                                    
     55     (1,6,5)               0.0000000      SURF                                    
     56     (1,6,6)               0.0000000      SURF                                    
     57     (1,6,7)               0.0000000      SURF                                    
     58     (1,6,8)               0.0000000      SURF                                    
     59     (1,6,9)               0.0000000      SURF                                    
     60     (1,6,10)              0.0000000      SURF                                    
     61     (1,7,1)               0.0000000      SURF                                    
     62     (1,7,2)               0.0000000      SURF                                    
     63     (1,7,3)               0.0000000      SURF                                    
     64     (1,7,4)               0.0000000      SURF                                    
     65     (1,7,5)               0.0000000      SURF                                    
     66     (1,7,6)               0.0000000      SURF                                    
     67     (1,7,7)               0.0000000      SURF                                    
     68     (1,7,8)               0.0000000      SURF                                    
     69     (1,7,9)               0.0000000      SURF                                    
     70     (1,7,10)              0.0000000      SURF                                    
     71     (1,8,1)               0.0000000      SURF                                    
     72     (1,8,2)               0.0000000      SURF                                    
     73     (1,8,3)               0.0000000      SURF                                    
     74     (1,8,4)               0.0000000      SURF                                    
     75     (1,8,5)               0.0000000      SURF                                    
     76     (1,8,6)               0.0000000      SURF                                    
     77     (1,8,7)               0.0000000      SURF                                    
     78     (1,8,8)               0.0000000      SURF                                    
     79     (1,8,9)               0.0000000      SURF                                    
     80     (1,8,10)              0.0000000      SURF                                    
     81     (1,9,1)               0.0000000      SURF                                    
     82     (1,9,2)               0.0000000      SURF                                    
     83     (1,9,3)               0.0000000      SURF                                    
     84     (1,9,4)               0.0000000      SURF                                    
     85     (1,9,5)               0.0000000      SURF                                    
     86     (1,9,6)               0.0000000      SURF                                    
     87     (1,9,7)               0.0000000      SURF                                    
     88     (1,9,8)               0.0000000      SURF                                    
     89     (1,9,9)               0.0000000      SURF                                    
     90     (1,9,10)              0.0000000      SURF                                    
     91     (1,10,1)              0.0000000      SURF                                    
     92     (1,10,2)              0.0000000      SURF                                    
     93     (1,10,3)              0.0000000      SURF                                    
     94     (1,10,4)              0.0000000      SURF                                    
     95     (1,10,5)              0.0000000      SURF                                    
     96     (1,10,6)              0.0000000      SURF                                    
     97     (1,10,7)              0.0000000      SURF                                    
     98     (1,10,8)              0.0000000      SURF                                    
     99     (1,10,9)              0.0000000      SURF                                    
    100     (1,10,10)             0.0000000      SURF                                    
    101     (1,11,1)              0.0000000      SURF                                    
    102     (1,11,2)              0.0000000      SURF                                    
    103     (1,11,3)              0.0000000      SURF                                    
    104     (1,11,4)              0.0000000      SURF                                    
    105     (1,11,5)              0.0000000      SURF                                    
    106     (1,11,6)              0.0000000      SURF                                    
    107     (1,11,7)              0.0000000      SURF                                    
    108     (1,11,8)              0.0000000      SURF                                    
    109     (1,11,9)              0.0000000      SURF                                    
    110     (1,11,10)             0.0000000      SURF                                    
    111     (1,12,1)              0.0000000      SURF                                    
    112     (1,12,2)              0.0000000      SURF                                    
    113     (1,12,3)              0.0000000      SURF                                    
    114     (1,12,4)              0.0000000      SURF                                    
    115     (1,12,5)              0.0000000      SURF                                    
    116     (1,12,6)              0.0000000      SURF                                    
    117     (1,12,7)              0.0000000      SURF                                    
    118     (1,12,8)              0.0000000      SURF                                    
    119     (1,12,9)              0.0000000      SURF                                    
    120     (1,12,10)             0.0000000      SURF                                    
    121     (1,13,1)              0.0000000      SURF                                    
    122     (1,13,2)              0.0000000      SURF                                    
    123     (1,13,3)              0.0000000      SURF                                    
    124     (1,13,4)              0.0000000      SURF                                    
    125     (1,13,5)              0.0000000      SURF                                    
    126     (1,13,6)              0.0000000      SURF                                    
    127     (1,13,7)              0.0000000      SURF                                    
    128     (1,13,8)              0.0000000      SURF                                    
    129     (1,13,9)              0.0000000      SURF                                    
    130     (1,13,10)             0.0000000      SURF                                    
    131     (1,14,1)              0.0000000      SURF                                    
    132     (1,14,2)              0.0000000      SURF                                    
    133     (1,14,3)              0.0000000      SURF                                    
    134     (1,14,4)              0.0000000      SURF                                    
    135     (1,14,5)              0.0000000      SURF                                    
    136     (1,14,6)              0.0000000      SURF                                    
    137     (1,14,7)              0.0000000      SURF                                    
    138     (1,14,8)              0.0000000      SURF                                    
    139     (1,14,9)              0.0000000      SURF                                    
    140     (1,14,10)             0.0000000      SURF                                    
    141     (1,15,1)              0.0000000      SURF                                    
    142     (1,15,2)              0.0000000      SURF                                    
    143     (1,15,3)              0.0000000      SURF                                    
    144     (1,15,4)              0.0000000      SURF                                    
    145     (1,15,5)              0.0000000      SURF                                    
    146     (1,15,6)              0.0000000      SURF                                    
    147     (1,15,7)              0.0000000      SURF                                    
    148     (1,15,8)              0.0000000      SURF                                    
    149     (1,15,9)              0.0000000      SURF                                    
    150     (1,15,10)             0.0000000      SURF                                    
 ----------------------------------------------------------------------------------------




 API PACKAGE (MAR) FLOW RATES   PERIOD      2   STEP        3
 -----------------------------------------------
   NUMBER   CELLID                    RATE      
 -----------------------------------------------
     1      (1,6,5)               90.000000     
     2      (1,6,6)               90.000000     
     3      (1,6,7)               90.000000     
     4      (1,10,5)              0.0000000     
     5      (1,10,6)              0.0000000     
     6      (1,10,7)              0.0000000     
 -----------------------------------------------



1
  HEAD IN LAYER   1 AT END OF TIME STEP   3 IN STRESS PERIOD    2
  ---------------------------------------------------------------------------

            1           2           3           4           5           6           7           8           9          10
 ........................................................................................................................
   1   2.6728E-10  2.3470E-09  1.8057E-08  1.1299E-07  4.5198E-07  5.2626E-07  4.5194E-07  1.1289E-07  1.7933E-08  2.3988E-09
   2   2.6740E-09  2.6855E-08  2.4832E-07  1.8062E-06  8.3490E-06  9.5897E-06  8.3489E-06  1.8061E-06  2.4835E-07  2.9108E-08
   3   2.8022E-08  3.1996E-07  3.4026E-06  2.8877E-05  1.5827E-04  1.7880E-04  1.5827E-04  2.8877E-05  3.4044E-06  3.4573E-07
   4   2.5145E-07  3.3143E-06  4.1287E-05  4.2257E-04  2.8956E-03  3.2044E-03  2.8956E-03  4.2257E-04  4.1303E-05  3.5491E-06
   5   1.7351E-06  2.7016E-05  4.0756E-04  5.3036E-03  4.9881E-02  5.3761E-02  4.9881E-02  5.3036E-03  4.0766E-04  2.8652E-05
   6   7.1058E-06  1.3492E-04  2.5944E-03  4.7087E-02  0.7310      0.7592      0.7310      4.7087E-02  2.5948E-03  1.4168E-04
   7   6.8444E-07  1.1684E-05  1.8707E-04  2.4580E-03  1.9303E-02 -0.1732      1.9303E-02  2.4580E-03  1.8710E-04  1.2334E-05
   8  -3.2199E-06 -5.4774E-05 -9.4130E-04 -1.5235E-02 -0.2253      -2.914     -0.2253     -1.5235E-02 -9.4147E-04 -5.7820E-05
   9  -1.0481E-06 -1.5293E-05 -2.1999E-04 -2.8410E-03 -3.0690E-02 -0.2280     -3.0690E-02 -2.8410E-03 -2.2005E-04 -1.6277E-05
  10  -1.9236E-07 -2.4592E-06 -3.0549E-05 -3.3079E-04 -2.8616E-03 -1.5650E-02 -2.8616E-03 -3.3079E-04 -3.0561E-05 -2.6384E-06
  11  -2.6352E-08 -2.9963E-07 -3.2806E-06 -3.0692E-05 -2.2298E-04 -9.8236E-04 -2.2298E-04 -3.0692E-05 -3.2823E-06 -3.2388E-07
  12  -3.0124E-09 -3.0781E-08 -3.0062E-07 -2.4795E-06 -1.5590E-05 -5.8082E-05 -1.5590E-05 -2.4794E-06 -3.0072E-07 -3.3397E-08
  13  -3.2116E-10 -2.9430E-09 -2.4950E-08 -1.8261E-07 -1.0133E-06 -3.2924E-06 -1.0132E-06 -1.8250E-07 -2.4830E-08 -3.0677E-09
  14  -5.1581E-11 -4.1078E-10 -2.2008E-09 -1.2951E-08 -6.2912E-08 -1.8139E-07 -6.2848E-08 -1.2830E-08 -2.0446E-09 -2.7793E-10
  15  -2.7624E-11 -2.0402E-10 -4.8249E-10 -1.3199E-09 -4.4184E-09 -1.0726E-08 -4.3489E-09 -1.1889E-09 -3.1371E-10 -4.4587E-11

 HEAD WILL BE SAVED ON UNIT 1100 AT END OF TIME STEP    3, STRESS PERIOD    2


  VOLUME BUDGET FOR ENTIRE MODEL AT END OF TIME STEP    3, STRESS PERIOD   2
  ---------------------------------------------------------------------------------------------------

     CUMULATIVE VOLUME      L**3       RATES FOR THIS TIME STEP      L**3/T          PACKAGE NAME    
     ------------------                 ------------------------                     ----------------

           IN:                                      IN:
           ---                                      ---
              STO-SS =           3.4670                STO-SS =           0.1042     STORAGE                          
              STO-SY =        7801.9945                STO-SY =         250.7282     STORAGE                          
                 WEL =           0.0000                   WEL =           0.0000     WEL-1                            
                 DRN =           0.0000                   DRN =           0.0000     DRN-0                            
                 API =        5400.0000                   API =         270.0000     MAR                              
                 CHD =       2.0279E-08                   CHD =           0.0000     CHD_0                            

            TOTAL IN =       13205.4615              TOTAL IN =         520.8323

          OUT:                                     OUT:
          ----                                     ----
              STO-SS =           2.6343                STO-SS =           0.1313     STORAGE                          
              STO-SY =        5102.8272                STO-SY =         250.7010     STORAGE                          
                 WEL =        8100.0000                   WEL =         270.0000     WEL-1                            
                 DRN =           0.0000                   DRN =           0.0000     DRN-0                            
                 API =           0.0000                   API =           0.0000     MAR                              
                 CHD =       2.0705E-08                   CHD =           0.0000     CHD_0                            

           TOTAL OUT =       13205.4615             TOTAL OUT =         520.8323

            IN - OUT =      -4.5275E-09              IN - OUT =      -2.8047E-10

 PERCENT DISCREPANCY =          -0.00     PERCENT DISCREPANCY =          -0.00




         TIME SUMMARY AT END OF TIME STEP    3 IN STRESS PERIOD    2
                    SECONDS     MINUTES      HOURS       DAYS        YEARS
                    -----------------------------------------------------------
   TIME STEP LENGTH 8.64000E+05  14400.      240.00      10.000     2.73785E-02
 STRESS PERIOD TIME 2.59200E+06  43200.      720.00      30.000     8.21355E-02
         TOTAL TIME 2.67840E+06  44640.      744.00      31.000     8.48734E-02


end timestep


start timestep kper="2" kstp="4" mode="normal"

 UBDSV1 SAVING           STO-SS ON UNIT   1099 AT TIME STEP      4, STRESS PERIOD      2
 UBDSV1 SAVING           STO-SY ON UNIT   1099 AT TIME STEP      4, STRESS PERIOD      2
 UBDSV1 SAVING     FLOW-JA-FACE ON UNIT   1099 AT TIME STEP      4, STRESS PERIOD      2
 UBDSV06 SAVING       DATA-SPDIS IN MODEL GWF              PACKAGE NPF             CONNECTED TO MODEL GWF              PACKAGE NPF              ON UNIT   1099 AT TIME STEP      4, STRESS PERIOD      2
 UBDSV06 SAVING              WEL IN MODEL GWF              PACKAGE GWF             CONNECTED TO MODEL GWF              PACKAGE WEL-1            ON UNIT   1099 AT TIME STEP      4, STRESS PERIOD      2
 UBDSV06 SAVING              DRN IN MODEL GWF              PACKAGE GWF             CONNECTED TO MODEL GWF              PACKAGE DRN-0            ON UNIT   1099 AT TIME STEP      4, STRESS PERIOD      2
 UBDSV06 SAVING              API IN MODEL GWF              PACKAGE GWF             CONNECTED TO MODEL GWF              PACKAGE MAR              ON UNIT   1099 AT TIME STEP      4, STRESS PERIOD      2
 UBDSV06 SAVING              CHD IN MODEL GWF              PACKAGE GWF             CONNECTED TO MODEL GWF              PACKAGE CHD_0            ON UNIT   1099 AT TIME STEP      4, STRESS PERIOD      2

    CALCULATED INTERCELL FLOW FOR PERIOD 2 STEP 4
(1,1,1): (1,1,2) 9.262619E-08 (1,2,1) 1.148014E-07
(1,1,2): (1,1,1) -9.262619E-08 (1,1,3) 6.776807E-07 (1,2,2) 1.059667E-06
(1,1,3): (1,1,2) -6.776807E-07 (1,1,4) 3.729507E-06 (1,2,3) 9.009812E-06
(1,1,4): (1,1,3) -3.729507E-06 (1,1,5) 1.196329E-05 (1,2,4) 5.946000E-05
(1,1,5): (1,1,4) -1.196329E-05 (1,1,6) 2.913730E-06 (1,2,5) 2.482954E-04
(1,1,6): (1,1,5) -2.913730E-06 (1,1,7) -2.914179E-06 (1,2,6) 2.885153E-04
(1,1,7): (1,1,6) 2.914179E-06 (1,1,8) -1.196368E-05 (1,2,7) 2.482953E-04
(1,1,8): (1,1,7) 1.196368E-05 (1,1,9) -3.728960E-06 (1,2,8) 5.946047E-05
(1,1,9): (1,1,8) 3.728960E-06 (1,1,10) -6.675157E-07 (1,2,9) 9.018841E-06
(1,1,10): (1,1,9) 6.675157E-07 (1,2,10) 1.164266E-06
(1,2,1): (1,1,1) -1.148014E-07 (1,2,2) 1.037492E-06 (1,3,1) 1.100337E-06
(1,2,2): (1,1,2) -1.059667E-06 (1,2,1) -1.037492E-06 (1,2,3) 8.627825E-06 (1,3,2) 1.141388E-05
(1,2,3): (1,1,3) -9.009812E-06 (1,2,2) -8.627825E-06 (1,2,4) 5.417970E-05 (1,3,3) 1.097297E-04
(1,2,4): (1,1,4) -5.946000E-05 (1,2,3) -5.417970E-05 (1,2,5) 2.007986E-04 (1,3,4) 8.315186E-04
(1,2,5): (1,1,5) -2.482954E-04 (1,2,4) -2.007986E-04 (1,2,6) 4.313344E-05 (1,3,5) 4.033401E-03
(1,2,6): (1,1,6) -2.885153E-04 (1,2,5) -4.313344E-05 (1,2,7) -4.313402E-05 (1,3,6) 4.617052E-03
(1,2,7): (1,1,7) -2.482953E-04 (1,2,6) 4.313402E-05 (1,2,8) -2.007984E-04 (1,3,7) 4.033401E-03
(1,2,8): (1,1,8) -5.946047E-05 (1,2,7) 2.007984E-04 (1,2,9) -5.417059E-05 (1,3,8) 8.315246E-04
(1,2,9): (1,1,9) -9.018841E-06 (1,2,8) 5.417059E-05 (1,2,10) -8.522090E-06 (1,3,9) 1.098110E-04
(1,2,10): (1,1,10) -1.164266E-06 (1,2,9) 8.522090E-06 (1,3,10) 1.242651E-05
(1,3,1): (1,2,1) -1.100337E-06 (1,3,2) 1.135103E-05 (1,4,1) 8.717924E-06
(1,3,2): (1,2,2) -1.141388E-05 (1,3,1) -1.135103E-05 (1,3,3) 1.069436E-04 (1,4,2) 1.035070E-04
(1,3,3): (1,2,3) -1.097297E-04 (1,3,2) -1.069436E-04 (1,3,4) 7.759683E-04 (1,4,3) 1.151491E-03
(1,3,4): (1,2,4) -8.315186E-04 (1,3,3) -7.759683E-04 (1,3,5) 3.402661E-03 (1,4,4) 1.034509E-02
(1,3,5): (1,2,5) -4.033401E-03 (1,3,4) -3.402661E-03 (1,3,6) 6.267616E-04 (1,4,5) 6.114321E-02
(1,3,6): (1,2,6) -4.617052E-03 (1,3,5) -6.267616E-04 (1,3,7) -6.267618E-04 (1,4,6) 6.863565E-02
(1,3,7): (1,2,7) -4.033401E-03 (1,3,6) 6.267618E-04 (1,3,8) -3.402655E-03 (1,4,7) 6.114321E-02
(1,3,8): (1,2,8) -8.315246E-04 (1,3,7) 3.402655E-03 (1,3,9) -7.758838E-04 (1,4,8) 1.034513E-02
(1,3,9): (1,2,9) -1.098110E-04 (1,3,8) 7.758838E-04 (1,3,10) -1.059066E-04 (1,4,9) 1.152072E-03
(1,3,10): (1,2,10) -1.242651E-05 (1,3,9) 1.059066E-04 (1,4,10) 1.116030E-04
(1,4,1): (1,3,1) -8.717924E-06 (1,4,2) 1.061401E-04 (1,5,1) 5.128518E-05
(1,4,2): (1,3,2) -1.035070E-04 (1,4,1) -1.061401E-04 (1,4,3) 1.154928E-03 (1,5,2) 7.144194E-04
(1,4,3): (1,3,3) -1.151491E-03 (1,4,2) -1.154928E-03 (1,4,4) 9.969537E-03 (1,5,3) 9.507950E-03
(1,4,4): (1,3,4) -1.034509E-02 (1,4,3) -9.969537E-03 (1,4,5) 5.419725E-02 (1,5,4) 0.106461
(1,4,5): (1,3,5) -6.114321E-02 (1,4,4) -5.419725E-02 (1,4,6) 8.114681E-03 (1,5,5) 0.836505
(1,4,6): (1,3,6) -6.863565E-02 (1,4,5) -8.114681E-03 (1,4,7) -8.114678E-03 (1,5,6) 0.914599
(1,4,7): (1,3,7) -6.114321E-02 (1,4,6) 8.114678E-03 (1,4,8) -5.419721E-02 (1,5,7) 0.836505
(1,4,8): (1,3,8) -1.034513E-02 (1,4,7) 5.419721E-02 (1,4,9) -9.968911E-03 (1,5,8) 0.106461
(1,4,9): (1,3,9) -1.152072E-03 (1,4,8) 9.968911E-03 (1,4,10) -1.146375E-03 (1,5,9) 9.510972E-03
(1,4,10): (1,3,10) -1.116030E-04 (1,4,9) 1.146375E-03 (1,5,10) 7.624936E-04
(1,5,1): (1,4,1) -5.128518E-05 (1,5,2) 7.692747E-04 (1,6,1) 1.600623E-04
(1,5,2): (1,4,2) -7.144194E-04 (1,5,1) -7.692747E-04 (1,5,3) 9.948497E-03 (1,6,2) 2.747608E-03
(1,5,3): (1,4,3) -9.507950E-03 (1,5,2) -9.948497E-03 (1,5,4) 0.106923 (1,6,3) 4.664592E-02
(1,5,4): (1,4,4) -0.106461 (1,5,3) -0.106923 (1,5,5) 0.783863 (1,6,4) 0.720964
(1,5,5): (1,4,5) -0.836505 (1,5,4) -0.783863 (1,5,6) 8.557980E-02 (1,6,5) 9.45246
(1,5,6): (1,4,6) -0.914599 (1,5,5) -8.557980E-02 (1,5,7) -8.557978E-02 (1,6,6) 9.92284
(1,5,7): (1,4,7) -0.836505 (1,5,6) 8.557978E-02 (1,5,8) -0.783863 (1,6,7) 9.45246
(1,5,8): (1,4,8) -0.106461 (1,5,7) 0.783863 (1,5,9) -0.106920 (1,6,8) 0.720965
(1,5,9): (1,4,9) -9.510972E-03 (1,5,8) 0.106920 (1,5,10) -9.894888E-03 (1,6,9) 4.665395E-02
(1,5,10): (1,4,10) -7.624936E-04 (1,5,9) 9.894888E-03 (1,6,10) 2.899222E-03
(1,6,1): (1,5,1) -1.600623E-04 (1,6,2) 3.356836E-03 (1,7,1) -1.905652E-04
(1,6,2): (1,5,2) -2.747608E-03 (1,6,1) -3.356836E-03 (1,6,3) 5.384997E-02 (1,7,2) -3.147085E-03
(1,6,3): (1,5,3) -4.664592E-02 (1,6,2) -5.384997E-02 (1,6,4) 0.781644 (1,7,3) -5.177579E-02
(1,6,4): (1,5,4) -0.720964 (1,6,3) -0.781644 (1,6,5) 9.52026 (1,7,4) -0.779674
(1,6,5): (1,5,5) -9.45246 (1,6,4) -9.52026 (1,6,6) 0.522599 (1,7,5) -10.0436
(1,6,6): (1,5,6) -9.92284 (1,6,5) -0.522599 (1,6,7) -0.522599 (1,7,6) -13.6613
(1,6,7): (1,5,7) -9.45246 (1,6,6) 0.522599 (1,6,8) -9.52026 (1,7,7) -10.0436
(1,6,8): (1,5,8) -0.720965 (1,6,7) 9.52026 (1,6,9) -0.781633 (1,7,8) -0.779675
(1,6,9): (1,5,9) -4.665395E-02 (1,6,8) 0.781633 (1,6,10) -5.365267E-02 (1,7,9) -5.178573E-02
(1,6,10): (1,5,10) -2.899222E-03 (1,6,9) 5.365267E-02 (1,7,10) -3.327158E-03
(1,7,1): (1,6,1) 1.905652E-04 (1,7,2) 4.003109E-04 (1,8,1) -1.129586E-04
(1,7,2): (1,6,2) 3.147085E-03 (1,7,1) -4.003109E-04 (1,7,3) 5.220258E-03 (1,8,2) -1.679981E-03
(1,7,3): (1,6,3) 5.177579E-02 (1,7,2) -5.220258E-03 (1,7,4) 5.373102E-02 (1,8,3) -2.464208E-02
(1,7,4): (1,6,4) 0.779674 (1,7,3) -5.373102E-02 (1,7,5) 0.296476 (1,8,4) -0.326666
(1,7,5): (1,6,5) 10.0436 (1,7,4) -0.296476 (1,7,6) -2.78398 (1,8,5) -3.72652
(1,7,6): (1,6,6) 13.6613 (1,7,5) 2.78398 (1,7,7) 2.78398 (1,8,6) -32.9910
(1,7,7): (1,6,7) 10.0436 (1,7,6) -2.78398 (1,7,8) -0.296476 (1,8,7) -3.72652
(1,7,8): (1,6,8) 0.779675 (1,7,7) 0.296476 (1,7,9) -5.372934E-02 (1,8,8) -0.326667
(1,7,9): (1,6,9) 5.178573E-02 (1,7,8) 5.372934E-02 (1,7,10) -5.193197E-03 (1,8,9) -2.464847E-02
(1,7,10): (1,6,10) 3.327158E-03 (1,7,9) 5.193197E-03 (1,8,10) -1.786161E-03
(1,8,1): (1,7,1) 1.129586E-04 (1,8,2) -1.166706E-03 (1,9,1) 5.261182E-05
(1,8,2): (1,7,2) 1.679981E-03 (1,8,1) 1.166706E-03 (1,8,3) -1.774053E-02 (1,9,2) 8.629409E-04
(1,8,3): (1,7,3) 2.464208E-02 (1,8,2) 1.774053E-02 (1,8,4) -0.248086 (1,9,3) 1.407390E-02
(1,8,4): (1,7,4) 0.326666 (1,8,3) 0.248086 (1,8,5) -3.08319 (1,9,4) 0.211839
(1,8,5): (1,7,5) 3.72652 (1,8,4) 3.08319 (1,8,6) -31.7657 (1,9,5) 2.83555
(1,8,6): (1,7,6) 32.9910 (1,8,5) 31.7657 (1,8,7) 31.7657 (1,9,6) 31.7315
(1,8,7): (1,7,7) 3.72652 (1,8,6) -31.7657 (1,8,8) 3.08319 (1,9,7) 2.83555
(1,8,8): (1,7,8) 0.326667 (1,8,7) -3.08319 (1,8,9) 0.248081 (1,9,8) 0.211839
(1,8,9): (1,7,9) 2.464847E-02 (1,8,8) -0.248081 (1,8,10) 1.766779E-02 (1,9,9) 1.407664E-02
(1,8,10): (1,7,10) 1.786161E-03 (1,8,9) -1.766779E-02 (1,9,10) 9.126525E-04
(1,9,1): (1,8,1) -5.261182E-05 (1,9,2) -3.563740E-04 (1,10,1) 2.603653E-05
(1,9,2): (1,8,2) -8.629409E-04 (1,9,1) 3.563740E-04 (1,9,3) -4.529087E-03 (1,10,2) 3.720678E-04
(1,9,3): (1,8,3) -1.407390E-02 (1,9,2) 4.529087E-03 (1,9,4) -5.024936E-02 (1,10,3) 5.462402E-03
(1,9,4): (1,8,4) -0.211839 (1,9,3) 5.024936E-02 (1,9,5) -0.453110 (1,10,4) 7.928674E-02
(1,9,5): (1,8,5) -2.83555 (1,9,4) 0.453110 (1,9,6) -2.86187 (1,10,5) 1.20980
(1,9,6): (1,8,6) -31.7315 (1,9,5) 2.86187 (1,9,7) 2.86187 (1,10,6) 3.90636
(1,9,7): (1,8,7) -2.83555 (1,9,6) -2.86187 (1,9,8) 0.453110 (1,10,7) 1.20980
(1,9,8): (1,8,8) -0.211839 (1,9,7) -0.453110 (1,9,9) 5.024762E-02 (1,10,8) 7.928684E-02
(1,9,9): (1,8,9) -1.407664E-02 (1,9,8) -5.024762E-02 (1,9,10) 4.503321E-03 (1,10,9) 5.463949E-03
(1,9,10): (1,8,10) -9.126525E-04 (1,9,9) -4.503321E-03 (1,10,10) 3.964584E-04
(1,10,1): (1,9,1) -2.603653E-05 (1,10,2) -1.034279E-05 (1,11,1) 3.197454E-06
(1,10,2): (1,9,2) -3.720678E-04 (1,10,1) 1.034279E-05 (1,10,3) 5.612034E-04 (1,11,2) 1.397942E-05
(1,10,3): (1,9,3) -5.462402E-03 (1,10,2) -5.612034E-04 (1,10,4) 2.355911E-02 (1,11,3) -4.716482E-04
(1,10,4): (1,9,4) -7.928674E-02 (1,10,3) -2.355911E-02 (1,10,5) 0.673479 (1,11,4) -2.218606E-02
(1,10,5): (1,9,5) -1.20980 (1,10,4) -0.673479 (1,10,6) -0.192442 (1,11,5) -0.669605
(1,10,6): (1,9,6) -3.90636 (1,10,5) 0.192442 (1,10,7) 0.192442 (1,11,6) -0.489117
(1,10,7): (1,9,7) -1.20980 (1,10,6) -0.192442 (1,10,8) -0.673479 (1,11,7) -0.669605
(1,10,8): (1,9,8) -7.928684E-02 (1,10,7) 0.673479 (1,10,9) -2.355941E-02 (1,11,8) -2.218603E-02
(1,10,9): (1,9,9) -5.463949E-03 (1,10,8) 2.355941E-02 (1,10,10) -5.641232E-04 (1,11,9) -4.713734E-04
(1,10,10): (1,9,10) -3.964584E-04 (1,10,9) 5.641232E-04 (1,11,10) 1.688006E-05
(1,11,1): (1,10,1) -3.197454E-06 (1,11,2) 4.391686E-07 (1,12,1) 3.390731E-07
(1,11,2): (1,10,2) -1.397942E-05 (1,11,1) -4.391686E-07 (1,11,3) 7.557537E-05 (1,12,2) -1.052597E-07
(1,11,3): (1,10,3) 4.716482E-04 (1,11,2) -7.557537E-05 (1,11,4) 1.844408E-03 (1,12,3) -7.067320E-05
(1,11,4): (1,10,4) 2.218606E-02 (1,11,3) -1.844408E-03 (1,11,5) 2.603562E-02 (1,12,4) -1.816621E-03
(1,11,5): (1,10,5) 0.669605 (1,11,4) -2.603562E-02 (1,11,6) -1.279843E-02 (1,12,5) -2.690595E-02
(1,11,6): (1,10,6) 0.489117 (1,11,5) 1.279843E-02 (1,11,7) 1.279843E-02 (1,12,6) -1.492175E-02
(1,11,7): (1,10,7) 0.669605 (1,11,6) -1.279843E-02 (1,11,8) -2.603562E-02 (1,12,7) -2.690595E-02
(1,11,8): (1,10,8) 2.218603E-02 (1,11,7) 2.603562E-02 (1,11,9) -1.844446E-03 (1,12,8) -1.816617E-03
(1,11,9): (1,10,9) 4.713734E-04 (1,11,8) 1.844446E-03 (1,11,10) -7.586931E-05 (1,12,9) -7.063534E-05
(1,11,10): (1,10,10) -1.688006E-05 (1,11,9) 7.586931E-05 (1,12,10) 1.927675E-07
(1,12,1): (1,11,1) -3.390731E-07 (1,12,2) -5.164166E-09 (1,13,1) 3.968072E-08
(1,12,2): (1,11,2) 1.052597E-07 (1,12,1) 5.164166E-09 (1,12,3) 5.007421E-06 (1,13,2) 3.071007E-08
(1,12,3): (1,11,3) 7.067320E-05 (1,12,2) -5.007421E-06 (1,12,4) 9.845941E-05 (1,13,3) -4.782524E-06
(1,12,4): (1,11,4) 1.816621E-03 (1,12,3) -9.845941E-05 (1,12,5) 9.465118E-04 (1,13,4) -9.916679E-05
(1,12,5): (1,11,5) 2.690595E-02 (1,12,4) -9.465118E-04 (1,12,6) -8.159193E-04 (1,13,5) -1.015052E-03
(1,12,6): (1,11,6) 1.492175E-02 (1,12,5) 8.159193E-04 (1,12,7) 8.159198E-04 (1,13,6) -2.488818E-04
(1,12,7): (1,11,7) 2.690595E-02 (1,12,6) -8.159198E-04 (1,12,8) -9.465119E-04 (1,13,7) -1.015052E-03
(1,12,8): (1,11,8) 1.816617E-03 (1,12,7) 9.465119E-04 (1,12,9) -9.846389E-05 (1,13,8) -9.916616E-05
(1,12,9): (1,11,9) 7.063534E-05 (1,12,8) 9.846389E-05 (1,12,10) -5.041192E-06 (1,13,9) -4.777611E-06
(1,12,10): (1,11,10) -1.927675E-07 (1,12,9) 5.041192E-06 (1,13,10) 6.533543E-08
(1,13,1): (1,12,1) -3.968072E-08 (1,13,2) -1.413482E-08 (1,14,1) 4.748693E-09
(1,13,2): (1,12,2) -3.071007E-08 (1,13,1) 1.413482E-08 (1,13,3) 1.941871E-07 (1,14,2) 1.512210E-08
(1,13,3): (1,12,3) 4.782524E-06 (1,13,2) -1.941871E-07 (1,13,4) 4.075142E-06 (1,14,3) -1.815495E-07
(1,13,4): (1,12,4) 9.916679E-05 (1,13,3) -4.075142E-06 (1,13,5) 3.062723E-05 (1,14,4) -4.145856E-06
(1,13,5): (1,12,5) 1.015052E-03 (1,13,4) -3.062723E-05 (1,13,6) -4.975070E-05 (1,14,5) -3.403072E-05
(1,13,6): (1,12,6) 2.488818E-04 (1,13,5) 4.975070E-05 (1,13,7) 4.975124E-05 (1,14,6) 1.280556E-05
(1,13,7): (1,12,7) 1.015052E-03 (1,13,6) -4.975124E-05 (1,13,8) -3.062679E-05 (1,14,7) -3.403063E-05
(1,13,8): (1,12,8) 9.916616E-05 (1,13,7) 3.062679E-05 (1,13,9) -4.075336E-06 (1,14,8) -4.145647E-06
(1,13,9): (1,12,9) 4.777611E-06 (1,13,8) 4.075336E-06 (1,13,10) -1.982454E-07 (1,14,9) -1.808454E-07
(1,13,10): (1,12,10) -6.533543E-08 (1,13,9) 1.982454E-07 (1,14,10) 1.936949E-08
(1,14,1): (1,13,1) -4.748693E-09 (1,14,2) -3.761414E-09 (1,15,1) 5.219475E-10
(1,14,2): (1,13,2) -1.512210E-08 (1,14,1) 3.761414E-09 (1,14,3) -2.484449E-09 (1,15,2) 2.467483E-09
(1,14,3): (1,13,3) 1.815495E-07 (1,14,2) 2.484449E-09 (1,14,4) 1.108356E-07 (1,15,3) 2.226659E-09
(1,14,4): (1,13,4) 4.145856E-06 (1,14,3) -1.108356E-07 (1,14,5) 7.423601E-07 (1,15,4) -1.112955E-07
(1,14,5): (1,13,5) 3.403072E-05 (1,14,4) -7.423601E-07 (1,14,6) -2.914405E-06 (1,15,5) -8.560182E-07
(1,14,6): (1,13,6) -1.280556E-05 (1,14,5) 2.914405E-06 (1,14,7) 2.915043E-06 (1,15,6) 1.884365E-06
(1,14,7): (1,13,7) 3.403063E-05 (1,14,6) -2.915043E-06 (1,14,8) -7.418043E-07 (1,15,7) -8.559670E-07
(1,14,8): (1,13,8) 4.145647E-06 (1,14,7) 7.418043E-07 (1,14,9) -1.105347E-07 (1,15,8) -1.111958E-07
(1,14,9): (1,13,9) 1.808454E-07 (1,14,8) 1.105347E-07 (1,14,10) 1.969547E-09 (1,15,9) 2.385899E-09
(1,14,10): (1,13,10) -1.936949E-08 (1,14,9) -1.969547E-09 (1,15,10) 2.974709E-09
(1,15,1): (1,14,1) -5.219475E-10 (1,15,2) -1.815879E-09
(1,15,2): (1,14,2) -2.467483E-09 (1,15,1) 1.815879E-09 (1,15,3) -2.725273E-09
(1,15,3): (1,14,3) -2.226659E-09 (1,15,2) 2.725273E-09 (1,15,4) -2.686559E-09
(1,15,4): (1,14,4) 1.112955E-07 (1,15,3) 2.686559E-09 (1,15,5) -2.362526E-09
(1,15,5): (1,14,5) 8.560182E-07 (1,15,4) 2.362526E-09 (1,15,6) -1.740224E-07
(1,15,6): (1,14,6) -1.884365E-06 (1,15,5) 1.740224E-07 (1,15,7) 1.747111E-07
(1,15,7): (1,14,7) 8.559670E-07 (1,15,6) -1.747111E-07 (1,15,8) 2.966828E-09
(1,15,8): (1,14,8) 1.111958E-07 (1,15,7) -2.966828E-09 (1,15,9) 3.047015E-09
(1,15,9): (1,14,9) -2.385899E-09 (1,15,8) -3.047015E-09 (1,15,10) 2.558357E-09
(1,15,10): (1,14,10) -2.974709E-09 (1,15,9) -2.558357E-09

 WEL PACKAGE (WEL-1) FLOW RATES   PERIOD      2   STEP        4
 ----------------------------------------------------------------------------------------
   NUMBER   CELLID                    RATE       NAME                                    
 ----------------------------------------------------------------------------------------
     1      (1,8,6)              -270.00000      WEL                                     
 ----------------------------------------------------------------------------------------




 DRN PACKAGE (DRN-0) FLOW RATES   PERIOD      2   STEP        4
 ----------------------------------------------------------------------------------------
   NUMBER   CELLID                    RATE       NAME                                    
 ----------------------------------------------------------------------------------------
     1      (1,1,1)               0.0000000      SURF                                    
     2      (1,1,2)               0.0000000      SURF                                    
     3      (1,1,3)               0.0000000      SURF                                    
     4      (1,1,4)               0.0000000      SURF                                    
     5      (1,1,5)               0.0000000      SURF                                    
     6      (1,1,6)               0.0000000      SURF                                    
     7      (1,1,7)               0.0000000      SURF                                    
     8      (1,1,8)               0.0000000      SURF                                    
     9      (1,1,9)               0.0000000      SURF                                    
     10     (1,1,10)              0.0000000      SURF                                    
     11     (1,2,1)               0.0000000      SURF                                    
     12     (1,2,2)               0.0000000      SURF                                    
     13     (1,2,3)               0.0000000      SURF                                    
     14     (1,2,4)               0.0000000      SURF                                    
     15     (1,2,5)               0.0000000      SURF                                    
     16     (1,2,6)               0.0000000      SURF                                    
     17     (1,2,7)               0.0000000      SURF                                    
     18     (1,2,8)               0.0000000      SURF                                    
     19     (1,2,9)               0.0000000      SURF                                    
     20     (1,2,10)              0.0000000      SURF                                    
     21     (1,3,1)               0.0000000      SURF                                    
     22     (1,3,2)               0.0000000      SURF                                    
     23     (1,3,3)               0.0000000      SURF                                    
     24     (1,3,4)               0.0000000      SURF                                    
     25     (1,3,5)               0.0000000      SURF                                    
     26     (1,3,6)               0.0000000      SURF                                    
     27     (1,3,7)               0.0000000      SURF                                    
     28     (1,3,8)               0.0000000      SURF                                    
     29     (1,3,9)               0.0000000      SURF                                    
     30     (1,3,10)              0.0000000      SURF                                    
     31     (1,4,1)               0.0000000      SURF                                    
     32     (1,4,2)               0.0000000      SURF                                    
     33     (1,4,3)               0.0000000      SURF                                    
     34     (1,4,4)               0.0000000      SURF                                    
     35     (1,4,5)               0.0000000      SURF                                    
     36     (1,4,6)               0.0000000      SURF                                    
     37     (1,4,7)               0.0000000      SURF                                    
     38     (1,4,8)               0.0000000      SURF                                    
     39     (1,4,9)               0.0000000      SURF                                    
     40     (1,4,10)              0.0000000      SURF                                    
     41     (1,5,1)               0.0000000      SURF                                    
     42     (1,5,2)               0.0000000      SURF                                    
     43     (1,5,3)               0.0000000      SURF                                    
     44     (1,5,4)               0.0000000      SURF                                    
     45     (1,5,5)               0.0000000      SURF                                    
     46     (1,5,6)               0.0000000      SURF                                    
     47     (1,5,7)               0.0000000      SURF                                    
     48     (1,5,8)               0.0000000      SURF                                    
     49     (1,5,9)               0.0000000      SURF                                    
     50     (1,5,10)              0.0000000      SURF                                    
     51     (1,6,1)               0.0000000      SURF                                    
     52     (1,6,2)               0.0000000      SURF                                    
     53     (1,6,3)               0.0000000      SURF                                    
     54     (1,6,4)               0.0000000      SURF                                    
     55     (1,6,5)               0.0000000      SURF                                    
     56     (1,6,6)              -3.59272235E-07 SURF                                    
     57     (1,6,7)               0.0000000      SURF                                    
     58     (1,6,8)               0.0000000      SURF                                    
     59     (1,6,9)               0.0000000      SURF                                    
     60     (1,6,10)              0.0000000      SURF                                    
     61     (1,7,1)               0.0000000      SURF                                    
     62     (1,7,2)               0.0000000      SURF                                    
     63     (1,7,3)               0.0000000      SURF                                    
     64     (1,7,4)               0.0000000      SURF                                    
     65     (1,7,5)               0.0000000      SURF                                    
     66     (1,7,6)               0.0000000      SURF                                    
     67     (1,7,7)               0.0000000      SURF                                    
     68     (1,7,8)               0.0000000      SURF                                    
     69     (1,7,9)               0.0000000      SURF                                    
     70     (1,7,10)              0.0000000      SURF                                    
     71     (1,8,1)               0.0000000      SURF                                    
     72     (1,8,2)               0.0000000      SURF                                    
     73     (1,8,3)               0.0000000      SURF                                    
     74     (1,8,4)               0.0000000      SURF                                    
     75     (1,8,5)               0.0000000      SURF                                    
     76     (1,8,6)               0.0000000      SURF                                    
     77     (1,8,7)               0.0000000      SURF                                    
     78     (1,8,8)               0.0000000      SURF                                    
     79     (1,8,9)               0.0000000      SURF                                    
     80     (1,8,10)              0.0000000      SURF                                    
     81     (1,9,1)               0.0000000      SURF                                    
     82     (1,9,2)               0.0000000      SURF                                    
     83     (1,9,3)               0.0000000      SURF                                    
     84     (1,9,4)               0.0000000      SURF                                    
     85     (1,9,5)               0.0000000      SURF                                    
     86     (1,9,6)               0.0000000      SURF                                    
     87     (1,9,7)               0.0000000      SURF                                    
     88     (1,9,8)               0.0000000      SURF                                    
     89     (1,9,9)               0.0000000      SURF                                    
     90     (1,9,10)              0.0000000      SURF                                    
     91     (1,10,1)              0.0000000      SURF                                    
     92     (1,10,2)              0.0000000      SURF                                    
     93     (1,10,3)              0.0000000      SURF                                    
     94     (1,10,4)              0.0000000      SURF                                    
     95     (1,10,5)              0.0000000      SURF                                    
     96     (1,10,6)              0.0000000      SURF                                    
     97     (1,10,7)              0.0000000      SURF                                    
     98     (1,10,8)              0.0000000      SURF                                    
     99     (1,10,9)              0.0000000      SURF                                    
    100     (1,10,10)             0.0000000      SURF                                    
    101     (1,11,1)              0.0000000      SURF                                    
    102     (1,11,2)              0.0000000      SURF                                    
    103     (1,11,3)              0.0000000      SURF                                    
    104     (1,11,4)              0.0000000      SURF                                    
    105     (1,11,5)              0.0000000      SURF                                    
    106     (1,11,6)              0.0000000      SURF                                    
    107     (1,11,7)              0.0000000      SURF                                    
    108     (1,11,8)              0.0000000      SURF                                    
    109     (1,11,9)              0.0000000      SURF                                    
    110     (1,11,10)             0.0000000      SURF                                    
    111     (1,12,1)              0.0000000      SURF                                    
    112     (1,12,2)              0.0000000      SURF                                    
    113     (1,12,3)              0.0000000      SURF                                    
    114     (1,12,4)              0.0000000      SURF                                    
    115     (1,12,5)              0.0000000      SURF                                    
    116     (1,12,6)              0.0000000      SURF                                    
    117     (1,12,7)              0.0000000      SURF                                    
    118     (1,12,8)              0.0000000      SURF                                    
    119     (1,12,9)              0.0000000      SURF                                    
    120     (1,12,10)             0.0000000      SURF                                    
    121     (1,13,1)              0.0000000      SURF                                    
    122     (1,13,2)              0.0000000      SURF                                    
    123     (1,13,3)              0.0000000      SURF                                    
    124     (1,13,4)              0.0000000      SURF                                    
    125     (1,13,5)              0.0000000      SURF                                    
    126     (1,13,6)              0.0000000      SURF                                    
    127     (1,13,7)              0.0000000      SURF                                    
    128     (1,13,8)              0.0000000      SURF                                    
    129     (1,13,9)              0.0000000      SURF                                    
    130     (1,13,10)             0.0000000      SURF                                    
    131     (1,14,1)              0.0000000      SURF                                    
    132     (1,14,2)              0.0000000      SURF                                    
    133     (1,14,3)              0.0000000      SURF                                    
    134     (1,14,4)              0.0000000      SURF                                    
    135     (1,14,5)              0.0000000      SURF                                    
    136     (1,14,6)              0.0000000      SURF                                    
    137     (1,14,7)              0.0000000      SURF                                    
    138     (1,14,8)              0.0000000      SURF                                    
    139     (1,14,9)              0.0000000      SURF                                    
    140     (1,14,10)             0.0000000      SURF                                    
    141     (1,15,1)              0.0000000      SURF                                    
    142     (1,15,2)              0.0000000      SURF                                    
    143     (1,15,3)              0.0000000      SURF                                    
    144     (1,15,4)              0.0000000      SURF                                    
    145     (1,15,5)              0.0000000      SURF                                    
    146     (1,15,6)              0.0000000      SURF                                    
    147     (1,15,7)              0.0000000      SURF                                    
    148     (1,15,8)              0.0000000      SURF                                    
    149     (1,15,9)              0.0000000      SURF                                    
    150     (1,15,10)             0.0000000      SURF                                    
 ----------------------------------------------------------------------------------------




 API PACKAGE (MAR) FLOW RATES   PERIOD      2   STEP        4
 -----------------------------------------------
   NUMBER   CELLID                    RATE      
 -----------------------------------------------
     1      (1,6,5)               72.816203     
     2      (1,6,6)               72.816203     
     3      (1,6,7)               72.816203     
     4      (1,10,5)              17.183797     
     5      (1,10,6)              17.183797     
     6      (1,10,7)              17.183797     
 -----------------------------------------------



1
  HEAD IN LAYER   1 AT END OF TIME STEP   4 IN STRESS PERIOD    2
  ---------------------------------------------------------------------------

            1           2           3           4           5           6           7           8           9          10
 ........................................................................................................................
   1   1.3039E-09  1.0567E-08  7.8335E-08  4.5129E-07  1.6476E-06  1.9390E-06  1.6476E-06  4.5120E-07  7.8305E-08  1.1553E-08
   2   1.2784E-08  1.1653E-07  9.7932E-07  6.3973E-06  2.6477E-05  3.0790E-05  2.6477E-05  6.3972E-06  9.8019E-07  1.2798E-07
   3   1.2282E-07  1.2579E-06  1.1952E-05  8.9548E-05  4.2980E-04  4.9247E-04  4.2980E-04  8.9549E-05  1.1961E-05  1.3706E-06
   4   9.9461E-07  1.1609E-05  1.2710E-04  1.1239E-03  6.5401E-03  7.3510E-03  6.5401E-03  1.1239E-03  1.2717E-04  1.2531E-05
   5   6.1231E-06  8.3050E-05  1.0778E-03  1.1758E-02  8.9449E-02  9.7924E-02  8.9449E-02  1.1758E-02  1.0782E-03  8.8780E-05
   6   2.2129E-05  3.5780E-04  5.7397E-03  8.3259E-02  0.9525       1.000      0.9525      8.3259E-02  5.7409E-03  3.7869E-04
   7   3.0728E-06  4.3104E-05  5.6510E-04  5.9350E-03  3.5478E-02 -0.2419      3.5478E-02  5.9350E-03  5.6528E-04  4.5988E-05
   8  -8.2230E-06 -1.2489E-04 -1.8990E-03 -2.6712E-02 -0.3359      -3.623     -0.3359     -2.6712E-02 -1.8994E-03 -1.3263E-04
   9  -2.9618E-06 -3.8599E-05 -4.9151E-04 -5.5167E-03 -5.0853E-02 -0.3385     -5.0853E-02 -5.5167E-03 -4.9170E-04 -4.1362E-05
  10  -3.5819E-07 -1.3925E-06  5.4728E-05  2.4101E-03  6.9294E-02  5.0183E-02  6.9294E-02  2.4101E-03  5.4696E-05 -1.7161E-06
  11  -3.8442E-08  5.4751E-09  7.5630E-06  1.9200E-04  2.7948E-03  1.5153E-03  2.7948E-03  1.9200E-04  7.5588E-06 -2.8117E-08
  12  -4.5344E-09 -5.0509E-09  4.9569E-07  1.0342E-05  1.0499E-04  2.3401E-05  1.0499E-04  1.0342E-05  4.9528E-07 -8.8402E-09
  13  -5.6637E-10 -1.9799E-09  1.7439E-08  4.2495E-07  3.4877E-06 -1.4874E-06  3.4877E-06  4.2505E-07  1.7518E-08 -2.3067E-09
  14  -9.1500E-11 -4.6764E-10 -7.1609E-10  1.0367E-08  8.4603E-08 -2.0684E-07  8.4667E-08  1.0487E-08 -5.6666E-10 -3.6971E-10
  15  -3.9306E-11 -2.2089E-10 -4.9342E-10 -7.6208E-10 -9.9833E-10 -1.8401E-08 -9.2946E-10 -6.3278E-10 -3.2808E-10 -7.2239E-11

 HEAD WILL BE SAVED ON UNIT 1100 AT END OF TIME STEP    4, STRESS PERIOD    2


  VOLUME BUDGET FOR ENTIRE MODEL AT END OF TIME STEP    4, STRESS PERIOD   2
  ---------------------------------------------------------------------------------------------------

     CUMULATIVE VOLUME      L**3       RATES FOR THIS TIME STEP      L**3/T          PACKAGE NAME    
     ------------------                 ------------------------                     ----------------

           IN:                                      IN:
           ---                                      ---
              STO-SS =           4.4046                STO-SS =       9.3756E-02     STORAGE                          
              STO-SY =       10162.2099                STO-SY =         236.0215     STORAGE                          
                 WEL =           0.0000                   WEL =           0.0000     WEL-1                            
                 DRN =           0.0000                   DRN =           0.0000     DRN-0                            
                 API =        8100.0000                   API =         270.0000     MAR                              
                 CHD =       2.0279E-08                   CHD =           0.0000     CHD_0                            

            TOTAL IN =       18266.6145              TOTAL IN =         506.1153

          OUT:                                     OUT:
          ----                                     ----
              STO-SS =           3.8748                STO-SS =           0.1240     STORAGE                          
              STO-SY =        7462.7397                STO-SY =         235.9912     STORAGE                          
                 WEL =       10800.0000                   WEL =         270.0000     WEL-1                            
                 DRN =       3.5927E-06                   DRN =       3.5927E-07     DRN-0                            
                 API =           0.0000                   API =           0.0000     MAR                              
                 CHD =       2.0705E-08                   CHD =           0.0000     CHD_0                            

           TOTAL OUT =       18266.6145             TOTAL OUT =         506.1153

            IN - OUT =       5.7225E-09              IN - OUT =       1.0248E-09

 PERCENT DISCREPANCY =           0.00     PERCENT DISCREPANCY =           0.00




         TIME SUMMARY AT END OF TIME STEP    4 IN STRESS PERIOD    2
                    SECONDS     MINUTES      HOURS       DAYS        YEARS
                    -----------------------------------------------------------
   TIME STEP LENGTH 8.64000E+05  14400.      240.00      10.000     2.73785E-02
 STRESS PERIOD TIME 3.45600E+06  57600.      960.00      40.000     0.10951    
         TOTAL TIME 3.54240E+06  59040.      984.00      41.000     0.11225    


end timestep


start timestep kper="2" kstp="5" mode="normal"

 UBDSV1 SAVING           STO-SS ON UNIT   1099 AT TIME STEP      5, STRESS PERIOD      2
 UBDSV1 SAVING           STO-SY ON UNIT   1099 AT TIME STEP      5, STRESS PERIOD      2
 UBDSV1 SAVING     FLOW-JA-FACE ON UNIT   1099 AT TIME STEP      5, STRESS PERIOD      2
 UBDSV06 SAVING       DATA-SPDIS IN MODEL GWF              PACKAGE NPF             CONNECTED TO MODEL GWF              PACKAGE NPF              ON UNIT   1099 AT TIME STEP      5, STRESS PERIOD      2
 UBDSV06 SAVING              WEL IN MODEL GWF              PACKAGE GWF             CONNECTED TO MODEL GWF              PACKAGE WEL-1            ON UNIT   1099 AT TIME STEP      5, STRESS PERIOD      2
 UBDSV06 SAVING              DRN IN MODEL GWF              PACKAGE GWF             CONNECTED TO MODEL GWF              PACKAGE DRN-0            ON UNIT   1099 AT TIME STEP      5, STRESS PERIOD      2
 UBDSV06 SAVING              API IN MODEL GWF              PACKAGE GWF             CONNECTED TO MODEL GWF              PACKAGE MAR              ON UNIT   1099 AT TIME STEP      5, STRESS PERIOD      2
 UBDSV06 SAVING              CHD IN MODEL GWF              PACKAGE GWF             CONNECTED TO MODEL GWF              PACKAGE CHD_0            ON UNIT   1099 AT TIME STEP      5, STRESS PERIOD      2

    CALCULATED INTERCELL FLOW FOR PERIOD 2 STEP 5
(1,1,1): (1,1,2) 3.149571E-07 (1,2,1) 3.955927E-07
(1,1,2): (1,1,1) -3.149571E-07 (1,1,3) 2.141752E-06 (1,2,2) 3.332599E-06
(1,1,3): (1,1,2) -2.141752E-06 (1,1,4) 1.075465E-05 (1,2,3) 2.584256E-05
(1,1,4): (1,1,3) -1.075465E-05 (1,1,5) 3.127061E-05 (1,2,4) 1.545128E-04
(1,1,5): (1,1,4) -3.127061E-05 (1,1,6) 8.295767E-06 (1,2,5) 5.843431E-04
(1,1,6): (1,1,5) -8.295767E-06 (1,1,7) -8.296195E-06 (1,2,6) 6.856547E-04
(1,1,7): (1,1,6) 8.296195E-06 (1,1,8) -3.127070E-05 (1,2,7) 5.843431E-04
(1,1,8): (1,1,7) 3.127070E-05 (1,1,9) -1.075099E-05 (1,2,8) 1.545155E-04
(1,1,9): (1,1,8) 1.075099E-05 (1,1,10) -2.103323E-06 (1,2,9) 2.587668E-05
(1,1,10): (1,1,9) 2.103323E-06 (1,2,10) 3.690498E-06
(1,2,1): (1,1,1) -3.955927E-07 (1,2,2) 3.251963E-06 (1,3,1) 3.472817E-06
(1,2,2): (1,1,2) -3.332599E-06 (1,2,1) -3.251963E-06 (1,2,3) 2.465172E-05 (1,3,2) 3.257362E-05
(1,2,3): (1,1,3) -2.584256E-05 (1,2,2) -2.465172E-05 (1,2,4) 1.394248E-04 (1,3,3) 2.823483E-04
(1,2,4): (1,1,4) -1.545128E-04 (1,2,3) -1.394248E-04 (1,2,5) 4.611004E-04 (1,3,4) 1.909868E-03
(1,2,5): (1,1,5) -5.843431E-04 (1,2,4) -4.611004E-04 (1,2,6) 1.096068E-04 (1,3,5) 8.221461E-03
(1,2,6): (1,1,6) -6.856547E-04 (1,2,5) -1.096068E-04 (1,2,7) -1.096072E-04 (1,3,6) 9.520613E-03
(1,2,7): (1,1,7) -5.843431E-04 (1,2,6) 1.096072E-04 (1,2,8) -4.610978E-04 (1,3,7) 8.221463E-03
(1,2,8): (1,1,8) -1.545155E-04 (1,2,7) 4.610978E-04 (1,2,9) -1.393898E-04 (1,3,8) 1.909891E-03
(1,2,9): (1,1,9) -2.587668E-05 (1,2,8) 1.393898E-04 (1,2,10) -2.428950E-05 (1,3,9) 2.826261E-04
(1,2,10): (1,1,10) -3.690498E-06 (1,2,9) 2.428950E-05 (1,3,10) 3.574473E-05
(1,3,1): (1,2,1) -3.472817E-06 (1,3,2) 3.235277E-05 (1,4,1) 2.492257E-05
(1,3,2): (1,2,2) -3.257362E-05 (1,3,1) -3.235277E-05 (1,3,3) 2.744264E-04 (1,4,2) 2.645472E-04
(1,3,3): (1,2,3) -2.823483E-04 (1,3,2) -2.744264E-04 (1,3,4) 1.766943E-03 (1,4,3) 2.615198E-03
(1,3,4): (1,2,4) -1.909868E-03 (1,3,3) -1.766943E-03 (1,3,5) 6.772601E-03 (1,4,4) 2.055839E-02
(1,3,5): (1,2,5) -8.221461E-03 (1,3,4) -6.772601E-03 (1,3,6) 1.408653E-03 (1,4,5) 0.104663
(1,3,6): (1,2,6) -9.520613E-03 (1,3,5) -1.408653E-03 (1,3,7) -1.408652E-03 (1,4,6) 0.119059
(1,3,7): (1,2,7) -8.221463E-03 (1,3,6) 1.408652E-03 (1,3,8) -6.772578E-03 (1,4,7) 0.104663
(1,3,8): (1,2,8) -1.909891E-03 (1,3,7) 6.772578E-03 (1,3,9) -1.766652E-03 (1,4,8) 2.055852E-02
(1,3,9): (1,2,9) -2.826261E-04 (1,3,8) 1.766652E-03 (1,3,10) -2.711708E-04 (1,4,9) 2.617011E-03
(1,3,10): (1,2,10) -3.574473E-05 (1,3,9) 2.711708E-04 (1,4,10) 2.875154E-04
(1,4,1): (1,3,1) -2.492257E-05 (1,4,2) 2.719775E-04 (1,5,1) 1.310027E-04
(1,4,2): (1,3,2) -2.645472E-04 (1,4,1) -2.719775E-04 (1,4,3) 2.625077E-03 (1,5,2) 1.607898E-03
(1,4,3): (1,3,3) -2.615198E-03 (1,4,2) -2.625077E-03 (1,4,4) 1.970998E-02 (1,5,3) 1.864321E-02
(1,4,4): (1,3,4) -2.055839E-02 (1,4,3) -1.970998E-02 (1,4,5) 9.086572E-02 (1,5,4) 0.177355
(1,4,5): (1,3,5) -0.104663 (1,4,4) -9.086572E-02 (1,4,6) 1.578974E-02 (1,5,5) 1.14008
(1,4,6): (1,3,6) -0.119059 (1,4,5) -1.578974E-02 (1,4,7) -1.578973E-02 (1,5,6) 1.26427
(1,4,7): (1,3,7) -0.104663 (1,4,6) 1.578973E-02 (1,4,8) -9.086557E-02 (1,5,7) 1.14008
(1,4,8): (1,3,8) -2.055852E-02 (1,4,7) 9.086557E-02 (1,4,9) -1.970801E-02 (1,5,8) 0.177356
(1,4,9): (1,3,9) -2.617011E-03 (1,4,8) 1.970801E-02 (1,4,10) -2.600666E-03 (1,5,9) 1.865174E-02
(1,4,10): (1,3,10) -2.875154E-04 (1,4,9) 2.600666E-03 (1,5,10) 1.729784E-03
(1,5,1): (1,4,1) -1.310027E-04 (1,5,2) 1.748875E-03 (1,6,1) 3.553308E-04
(1,5,2): (1,4,2) -1.607898E-03 (1,5,1) -1.748875E-03 (1,5,3) 1.966056E-02 (1,6,2) 5.270688E-03
(1,5,3): (1,4,3) -1.864321E-02 (1,5,2) -1.966056E-02 (1,5,4) 0.178424 (1,6,3) 7.572987E-02
(1,5,4): (1,4,4) -0.177355 (1,5,3) -0.178424 (1,5,5) 1.05277 (1,6,4) 0.944982
(1,5,5): (1,4,5) -1.14008 (1,5,4) -1.05277 (1,5,6) 0.138636 (1,6,5) 8.95818
(1,5,6): (1,4,6) -1.26427 (1,5,5) -0.138636 (1,5,7) -0.138636 (1,6,6) 9.48611
(1,5,7): (1,4,7) -1.14008 (1,5,6) 0.138636 (1,5,8) -1.05277 (1,6,7) 8.95818
(1,5,8): (1,4,8) -0.177356 (1,5,7) 1.05277 (1,5,9) -0.178414 (1,6,8) 0.944983
(1,5,9): (1,4,9) -1.865174E-02 (1,5,8) 0.178414 (1,5,10) -1.952277E-02 (1,6,9) 7.574987E-02
(1,5,10): (1,4,10) -1.729784E-03 (1,5,9) 1.952277E-02 (1,6,10) 5.604870E-03
(1,6,1): (1,5,1) -3.553308E-04 (1,6,2) 6.664301E-03 (1,7,1) -4.284709E-04
(1,6,2): (1,5,2) -5.270688E-03 (1,6,1) -6.664301E-03 (1,6,3) 9.012987E-02 (1,7,2) -6.139150E-03
(1,6,3): (1,5,3) -7.572987E-02 (1,6,2) -9.012987E-02 (1,6,4) 1.04855 (1,7,3) -8.581132E-02
(1,6,4): (1,5,4) -0.944982 (1,6,3) -1.04855 (1,6,5) 9.07362 (1,7,4) -1.04839
(1,6,5): (1,5,5) -8.95818 (1,6,4) -9.07362 (1,6,6) 0.631375 (1,7,5) -9.87281
(1,6,6): (1,5,6) -9.48611 (1,6,5) -0.631375 (1,6,7) -0.631375 (1,7,6) -14.5455
(1,6,7): (1,5,7) -8.95818 (1,6,6) 0.631375 (1,6,8) -9.07361 (1,7,7) -9.87281
(1,6,8): (1,5,8) -0.944983 (1,6,7) 9.07361 (1,6,9) -1.04853 (1,7,8) -1.04839
(1,6,9): (1,5,9) -7.574987E-02 (1,6,8) 1.04853 (1,6,10) -8.967752E-02 (1,7,9) -8.583630E-02
(1,6,10): (1,5,10) -5.604870E-03 (1,6,9) 8.967752E-02 (1,7,10) -6.541145E-03
(1,7,1): (1,6,1) 4.284709E-04 (1,7,2) 9.535917E-04 (1,8,1) -2.620226E-04
(1,7,2): (1,6,2) 6.139150E-03 (1,7,1) -9.535917E-04 (1,7,3) 1.045426E-02 (1,8,2) -3.448787E-03
(1,7,3): (1,6,3) 8.581132E-02 (1,7,2) -1.045426E-02 (1,7,4) 8.597171E-02 (1,8,3) -4.442342E-02
(1,7,4): (1,6,4) 1.04839 (1,7,3) -8.597171E-02 (1,7,5) 0.307518 (1,8,4) -0.508933
(1,7,5): (1,6,5) 9.87281 (1,7,4) -0.307518 (1,7,6) -3.64153 (1,8,5) -4.94557
(1,7,6): (1,6,6) 14.5455 (1,7,5) 3.64153 (1,7,7) 3.64153 (1,8,6) -37.9138
(1,7,7): (1,6,7) 9.87281 (1,7,6) -3.64153 (1,7,8) -0.307518 (1,8,7) -4.94557
(1,7,8): (1,6,8) 1.04839 (1,7,7) 0.307518 (1,7,9) -8.596639E-02 (1,8,8) -0.508934
(1,7,9): (1,6,9) 8.583630E-02 (1,7,8) 8.596639E-02 (1,7,10) -1.037933E-02 (1,8,9) -4.443977E-02
(1,7,10): (1,6,10) 6.541145E-03 (1,7,9) 1.037933E-02 (1,8,10) -3.693367E-03
(1,8,1): (1,7,1) 2.620226E-04 (1,8,2) -2.233143E-03 (1,9,1) 1.083926E-04
(1,8,2): (1,7,2) 3.448787E-03 (1,8,1) 2.233143E-03 (1,8,3) -3.051577E-02 (1,9,2) 1.631621E-03
(1,8,3): (1,7,3) 4.442342E-02 (1,8,2) 3.051577E-02 (1,8,4) -0.378007 (1,9,3) 2.422286E-02
(1,8,4): (1,7,4) 0.508933 (1,8,3) 0.378007 (1,8,5) -4.09407 (1,9,4) 0.327005
(1,8,5): (1,7,5) 4.94557 (1,8,4) 4.09407 (1,8,6) -36.1649 (1,9,5) 3.84508
(1,8,6): (1,7,6) 37.9138 (1,8,5) 36.1649 (1,8,7) 36.1649 (1,9,6) 36.2881
(1,8,7): (1,7,7) 4.94557 (1,8,6) -36.1649 (1,8,8) 4.09407 (1,9,7) 3.84508
(1,8,8): (1,7,8) 0.508934 (1,8,7) -4.09407 (1,8,9) 0.377997 (1,9,8) 0.327005
(1,8,9): (1,7,9) 4.443977E-02 (1,8,8) -0.377997 (1,8,10) 3.036242E-02 (1,9,9) 2.422891E-02
(1,8,10): (1,7,10) 3.693367E-03 (1,8,9) -3.036242E-02 (1,9,10) 1.733597E-03
(1,9,1): (1,8,1) -1.083926E-04 (1,9,2) -7.099054E-04 (1,10,1) 7.174521E-05
(1,9,2): (1,8,2) -1.631621E-03 (1,9,1) 7.099054E-04 (1,9,3) -7.923111E-03 (1,10,2) 1.024099E-03
(1,9,3): (1,8,3) -2.422286E-02 (1,9,2) 7.923111E-03 (1,9,4) -7.507134E-02 (1,10,3) 1.563501E-02
(1,9,4): (1,8,4) -0.327005 (1,9,3) 7.507134E-02 (1,9,5) -0.567467 (1,10,4) 0.246895
(1,9,5): (1,8,5) -3.84508 (1,9,4) 0.567467 (1,9,6) -3.75338 (1,10,5) 4.16570
(1,9,6): (1,8,6) -36.2881 (1,9,5) 3.75338 (1,9,7) 3.75338 (1,10,6) 7.87737
(1,9,7): (1,8,7) -3.84508 (1,9,6) -3.75338 (1,9,8) 0.567467 (1,10,7) 4.16570
(1,9,8): (1,8,8) -0.327005 (1,9,7) -0.567467 (1,9,9) 7.506705E-02 (1,10,8) 0.246896
(1,9,9): (1,8,9) -2.422891E-02 (1,9,8) -7.506705E-02 (1,9,10) 7.865728E-03 (1,10,9) 1.563937E-02
(1,9,10): (1,8,10) -1.733597E-03 (1,9,9) -7.865728E-03 (1,10,10) 1.091191E-03
(1,10,1): (1,9,1) -7.174521E-05 (1,10,2) 2.424462E-04 (1,11,1) -2.622586E-06
(1,10,2): (1,9,2) -1.024099E-03 (1,10,1) -2.424462E-04 (1,10,3) 6.687120E-03 (1,11,2) -1.941988E-04
(1,10,3): (1,9,3) -1.563501E-02 (1,10,2) -6.687120E-03 (1,10,4) 0.156036 (1,11,3) -5.916892E-03
(1,10,4): (1,9,4) -0.246895 (1,10,3) -0.156036 (1,10,5) 3.32375 (1,11,4) -0.147123
(1,10,5): (1,9,5) -4.16570 (1,10,4) -3.32375 (1,10,6) -0.180614 (1,11,5) -3.30966
(1,10,6): (1,9,6) -7.87737 (1,10,5) 0.180614 (1,10,7) 0.180614 (1,11,6) -3.13537
(1,10,7): (1,9,7) -4.16570 (1,10,6) -0.180614 (1,10,8) -3.32375 (1,11,7) -3.30966
(1,10,8): (1,9,8) -0.246896 (1,10,7) 3.32375 (1,10,9) -0.156036 (1,11,8) -0.147123
(1,10,9): (1,9,9) -1.563937E-02 (1,10,8) 0.156036 (1,10,10) -6.681766E-03 (1,11,9) -5.916604E-03
(1,10,10): (1,9,10) -1.091191E-03 (1,10,9) 6.681766E-03 (1,11,10) -1.971539E-04
(1,11,1): (1,10,1) 2.622586E-06 (1,11,2) 5.086989E-05 (1,12,1) -1.873187E-06
(1,11,2): (1,10,2) 1.941988E-04 (1,11,1) -5.086989E-05 (1,11,3) 9.643834E-04 (1,12,2) -4.697428E-05
(1,11,3): (1,10,3) 5.916892E-03 (1,11,2) -9.643834E-04 (1,11,4) 1.481720E-02 (1,12,3) -9.241094E-04
(1,11,4): (1,10,4) 0.147123 (1,11,3) -1.481720E-02 (1,11,5) 0.160803 (1,12,4) -1.472317E-02
(1,11,5): (1,10,5) 3.30966 (1,11,4) -0.160803 (1,11,6) -1.127433E-02 (1,12,5) -0.168027
(1,11,6): (1,10,6) 3.13537 (1,11,5) 1.127433E-02 (1,11,7) 1.127433E-02 (1,12,6) -0.157542
(1,11,7): (1,10,7) 3.30966 (1,11,6) -1.127433E-02 (1,11,8) -0.160803 (1,12,7) -0.168027
(1,11,8): (1,10,8) 0.147123 (1,11,7) 0.160803 (1,11,9) -1.481715E-02 (1,12,8) -1.472317E-02
(1,11,9): (1,10,9) 5.916604E-03 (1,11,8) 1.481715E-02 (1,11,10) -9.622721E-04 (1,12,9) -9.241429E-04
(1,11,10): (1,10,10) 1.971539E-04 (1,11,9) 9.622721E-04 (1,12,10) -4.881727E-05
(1,12,1): (1,11,1) 1.873187E-06 (1,12,2) 5.768787E-06 (1,13,1) -2.900342E-07
(1,12,2): (1,11,2) 4.697428E-05 (1,12,1) -5.768787E-06 (1,12,3) 8.724791E-05 (1,13,2) -5.564645E-06
(1,12,3): (1,11,3) 9.241094E-04 (1,12,2) -8.724791E-05 (1,12,4) 1.018126E-03 (1,13,3) -8.646744E-05
(1,12,4): (1,11,4) 1.472317E-02 (1,12,3) -1.018126E-03 (1,12,5) 7.510065E-03 (1,13,4) -1.044275E-03
(1,12,5): (1,11,5) 0.168027 (1,12,4) -7.510065E-03 (1,12,6) -8.063567E-04 (1,13,5) -8.215391E-03
(1,12,6): (1,11,6) 0.157542 (1,12,5) 8.063567E-04 (1,12,7) 8.063571E-04 (1,13,6) -7.467636E-03
(1,12,7): (1,11,7) 0.168027 (1,12,6) -8.063571E-04 (1,12,8) -7.510065E-03 (1,13,7) -8.215391E-03
(1,12,8): (1,11,8) 1.472317E-02 (1,12,7) 7.510065E-03 (1,12,9) -1.018115E-03 (1,13,8) -1.044275E-03
(1,12,9): (1,11,9) 9.241429E-04 (1,12,8) 1.018115E-03 (1,12,10) -8.694615E-05 (1,13,9) -8.647646E-05
(1,12,10): (1,11,10) 4.881727E-05 (1,12,9) 8.694615E-05 (1,13,10) -5.845497E-06
(1,13,1): (1,12,1) 2.900342E-07 (1,13,2) 4.941767E-07 (1,14,1) -2.987085E-08
(1,13,2): (1,12,2) 5.564645E-06 (1,13,1) -4.941767E-07 (1,13,3) 6.345113E-06 (1,14,2) -4.899224E-07
(1,13,3): (1,12,3) 8.646744E-05 (1,13,2) -6.345113E-06 (1,13,4) 6.031888E-05 (1,14,3) -6.435475E-06
(1,13,4): (1,12,4) 1.044275E-03 (1,13,3) -6.031888E-05 (1,13,5) 3.389996E-04 (1,14,4) -6.351273E-05
(1,13,5): (1,12,5) 8.215391E-03 (1,13,4) -3.389996E-04 (1,13,6) -5.865763E-05 (1,14,5) -3.877841E-04
(1,13,6): (1,12,6) 7.467636E-03 (1,13,5) 5.865763E-05 (1,13,7) 5.865817E-05 (1,14,6) -3.332260E-04
(1,13,7): (1,12,7) 8.215391E-03 (1,13,6) -5.865817E-05 (1,13,8) -3.389991E-04 (1,14,7) -3.877840E-04
(1,13,8): (1,12,8) 1.044275E-03 (1,13,7) 3.389991E-04 (1,13,9) -6.031731E-05 (1,14,8) -6.351257E-05
(1,13,9): (1,12,9) 8.647646E-05 (1,13,8) 6.031731E-05 (1,13,10) -6.315185E-06 (1,14,9) -6.436450E-06
(1,13,10): (1,12,10) 5.845497E-06 (1,13,9) 6.315185E-06 (1,14,10) -5.185681E-07
(1,14,1): (1,13,1) 2.987085E-08 (1,14,2) 3.412509E-08 (1,15,1) -2.393416E-09
(1,14,2): (1,13,2) 4.899224E-07 (1,14,1) -3.412509E-08 (1,14,3) 3.995604E-07 (1,15,2) -3.564585E-08
(1,14,3): (1,13,3) 6.435475E-06 (1,14,2) -3.995604E-07 (1,14,4) 3.241634E-06 (1,15,3) -4.129155E-07
(1,14,4): (1,13,4) 6.351273E-05 (1,14,3) -3.241634E-06 (1,14,5) 1.472840E-05 (1,15,4) -3.487541E-06
(1,14,5): (1,13,5) 3.877841E-04 (1,14,4) -1.472840E-05 (1,14,6) -4.099777E-06 (1,15,5) -1.758323E-05
(1,14,6): (1,13,6) 3.332260E-04 (1,14,5) 4.099777E-06 (1,14,7) 4.100409E-06 (1,15,6) -1.377285E-05
(1,14,7): (1,13,7) 3.877840E-04 (1,14,6) -4.100409E-06 (1,14,8) -1.472784E-05 (1,15,7) -1.758318E-05
(1,14,8): (1,13,8) 6.351257E-05 (1,14,7) 1.472784E-05 (1,14,9) -3.241186E-06 (1,15,8) -3.487449E-06
(1,14,9): (1,13,9) 6.436450E-06 (1,14,8) 3.241186E-06 (1,14,10) -3.973028E-07 (1,15,9) -4.129133E-07
(1,14,10): (1,13,10) 5.185681E-07 (1,14,9) 3.973028E-07 (1,15,10) -3.789471E-08
(1,15,1): (1,14,1) 2.393416E-09 (1,15,2) 8.726611E-10
(1,15,2): (1,14,2) 3.564585E-08 (1,15,1) -8.726611E-10 (1,15,3) 2.229072E-08
(1,15,3): (1,14,3) 4.129155E-07 (1,15,2) -2.229072E-08 (1,15,4) 1.670090E-07
(1,15,4): (1,14,4) 3.487541E-06 (1,15,3) -1.670090E-07 (1,15,5) 6.327128E-07
(1,15,5): (1,14,5) 1.758323E-05 (1,15,4) -6.327128E-07 (1,15,6) -2.894032E-07
(1,15,6): (1,14,6) 1.377285E-05 (1,15,5) 2.894032E-07 (1,15,7) 2.900850E-07
(1,15,7): (1,14,7) 1.758318E-05 (1,15,6) -2.900850E-07 (1,15,8) -6.321180E-07
(1,15,8): (1,14,8) 3.487449E-06 (1,15,7) 6.321180E-07 (1,15,9) -1.666500E-07
(1,15,9): (1,14,9) 4.129133E-07 (1,15,8) 1.666500E-07 (1,15,10) -2.228422E-08
(1,15,10): (1,14,10) 3.789471E-08 (1,15,9) 2.228422E-08

 WEL PACKAGE (WEL-1) FLOW RATES   PERIOD      2   STEP        5
 ----------------------------------------------------------------------------------------
   NUMBER   CELLID                    RATE       NAME                                    
 ----------------------------------------------------------------------------------------
     1      (1,8,6)              -270.00000      WEL                                     
 ----------------------------------------------------------------------------------------




 DRN PACKAGE (DRN-0) FLOW RATES   PERIOD      2   STEP        5
 ----------------------------------------------------------------------------------------
   NUMBER   CELLID                    RATE       NAME                                    
 ----------------------------------------------------------------------------------------
     1      (1,1,1)               0.0000000      SURF                                    
     2      (1,1,2)               0.0000000      SURF                                    
     3      (1,1,3)               0.0000000      SURF                                    
     4      (1,1,4)               0.0000000      SURF                                    
     5      (1,1,5)               0.0000000      SURF                                    
     6      (1,1,6)               0.0000000      SURF                                    
     7      (1,1,7)               0.0000000      SURF                                    
     8      (1,1,8)               0.0000000      SURF                                    
     9      (1,1,9)               0.0000000      SURF                                    
     10     (1,1,10)              0.0000000      SURF                                    
     11     (1,2,1)               0.0000000      SURF                                    
     12     (1,2,2)               0.0000000      SURF                                    
     13     (1,2,3)               0.0000000      SURF                                    
     14     (1,2,4)               0.0000000      SURF                                    
     15     (1,2,5)               0.0000000      SURF                                    
     16     (1,2,6)               0.0000000      SURF                                    
     17     (1,2,7)               0.0000000      SURF                                    
     18     (1,2,8)               0.0000000      SURF                                    
     19     (1,2,9)               0.0000000      SURF                                    
     20     (1,2,10)              0.0000000      SURF                                    
     21     (1,3,1)               0.0000000      SURF                                    
     22     (1,3,2)               0.0000000      SURF                                    
     23     (1,3,3)               0.0000000      SURF                                    
     24     (1,3,4)               0.0000000      SURF                                    
     25     (1,3,5)               0.0000000      SURF                                    
     26     (1,3,6)               0.0000000      SURF                                    
     27     (1,3,7)               0.0000000      SURF                                    
     28     (1,3,8)               0.0000000      SURF                                    
     29     (1,3,9)               0.0000000      SURF                                    
     30     (1,3,10)              0.0000000      SURF                                    
     31     (1,4,1)               0.0000000      SURF                                    
     32     (1,4,2)               0.0000000      SURF                                    
     33     (1,4,3)               0.0000000      SURF                                    
     34     (1,4,4)               0.0000000      SURF                                    
     35     (1,4,5)               0.0000000      SURF                                    
     36     (1,4,6)               0.0000000      SURF                                    
     37     (1,4,7)               0.0000000      SURF                                    
     38     (1,4,8)               0.0000000      SURF                                    
     39     (1,4,9)               0.0000000      SURF                                    
     40     (1,4,10)              0.0000000      SURF                                    
     41     (1,5,1)               0.0000000      SURF                                    
     42     (1,5,2)               0.0000000      SURF                                    
     43     (1,5,3)               0.0000000      SURF                                    
     44     (1,5,4)               0.0000000      SURF                                    
     45     (1,5,5)               0.0000000      SURF                                    
     46     (1,5,6)               0.0000000      SURF                                    
     47     (1,5,7)               0.0000000      SURF                                    
     48     (1,5,8)               0.0000000      SURF                                    
     49     (1,5,9)               0.0000000      SURF                                    
     50     (1,5,10)              0.0000000      SURF                                    
     51     (1,6,1)               0.0000000      SURF                                    
     52     (1,6,2)               0.0000000      SURF                                    
     53     (1,6,3)               0.0000000      SURF                                    
     54     (1,6,4)               0.0000000      SURF                                    
     55     (1,6,5)               0.0000000      SURF                                    
     56     (1,6,6)              -3.97965778E-07 SURF                                    
     57     (1,6,7)               0.0000000      SURF                                    
     58     (1,6,8)               0.0000000      SURF                                    
     59     (1,6,9)               0.0000000      SURF                                    
     60     (1,6,10)              0.0000000      SURF                                    
     61     (1,7,1)               0.0000000      SURF                                    
     62     (1,7,2)               0.0000000      SURF                                    
     63     (1,7,3)               0.0000000      SURF                                    
     64     (1,7,4)               0.0000000      SURF                                    
     65     (1,7,5)               0.0000000      SURF                                    
     66     (1,7,6)               0.0000000      SURF                                    
     67     (1,7,7)               0.0000000      SURF                                    
     68     (1,7,8)               0.0000000      SURF                                    
     69     (1,7,9)               0.0000000      SURF                                    
     70     (1,7,10)              0.0000000      SURF                                    
     71     (1,8,1)               0.0000000      SURF                                    
     72     (1,8,2)               0.0000000      SURF                                    
     73     (1,8,3)               0.0000000      SURF                                    
     74     (1,8,4)               0.0000000      SURF                                    
     75     (1,8,5)               0.0000000      SURF                                    
     76     (1,8,6)               0.0000000      SURF                                    
     77     (1,8,7)               0.0000000      SURF                                    
     78     (1,8,8)               0.0000000      SURF                                    
     79     (1,8,9)               0.0000000      SURF                                    
     80     (1,8,10)              0.0000000      SURF                                    
     81     (1,9,1)               0.0000000      SURF                                    
     82     (1,9,2)               0.0000000      SURF                                    
     83     (1,9,3)               0.0000000      SURF                                    
     84     (1,9,4)               0.0000000      SURF                                    
     85     (1,9,5)               0.0000000      SURF                                    
     86     (1,9,6)               0.0000000      SURF                                    
     87     (1,9,7)               0.0000000      SURF                                    
     88     (1,9,8)               0.0000000      SURF                                    
     89     (1,9,9)               0.0000000      SURF                                    
     90     (1,9,10)              0.0000000      SURF                                    
     91     (1,10,1)              0.0000000      SURF                                    
     92     (1,10,2)              0.0000000      SURF                                    
     93     (1,10,3)              0.0000000      SURF                                    
     94     (1,10,4)              0.0000000      SURF                                    
     95     (1,10,5)              0.0000000      SURF                                    
     96     (1,10,6)              0.0000000      SURF                                    
     97     (1,10,7)              0.0000000      SURF                                    
     98     (1,10,8)              0.0000000      SURF                                    
     99     (1,10,9)              0.0000000      SURF                                    
    100     (1,10,10)             0.0000000      SURF                                    
    101     (1,11,1)              0.0000000      SURF                                    
    102     (1,11,2)              0.0000000      SURF                                    
    103     (1,11,3)              0.0000000      SURF                                    
    104     (1,11,4)              0.0000000      SURF                                    
    105     (1,11,5)              0.0000000      SURF                                    
    106     (1,11,6)              0.0000000      SURF                                    
    107     (1,11,7)              0.0000000      SURF                                    
    108     (1,11,8)              0.0000000      SURF                                    
    109     (1,11,9)              0.0000000      SURF                                    
    110     (1,11,10)             0.0000000      SURF                                    
    111     (1,12,1)              0.0000000      SURF                                    
    112     (1,12,2)              0.0000000      SURF                                    
    113     (1,12,3)              0.0000000      SURF                                    
    114     (1,12,4)              0.0000000      SURF                                    
    115     (1,12,5)              0.0000000      SURF                                    
    116     (1,12,6)              0.0000000      SURF                                    
    117     (1,12,7)              0.0000000      SURF                                    
    118     (1,12,8)              0.0000000      SURF                                    
    119     (1,12,9)              0.0000000      SURF                                    
    120     (1,12,10)             0.0000000      SURF                                    
    121     (1,13,1)              0.0000000      SURF                                    
    122     (1,13,2)              0.0000000      SURF                                    
    123     (1,13,3)              0.0000000      SURF                                    
    124     (1,13,4)              0.0000000      SURF                                    
    125     (1,13,5)              0.0000000      SURF                                    
    126     (1,13,6)              0.0000000      SURF                                    
    127     (1,13,7)              0.0000000      SURF                                    
    128     (1,13,8)              0.0000000      SURF                                    
    129     (1,13,9)              0.0000000      SURF                                    
    130     (1,13,10)             0.0000000      SURF                                    
    131     (1,14,1)              0.0000000      SURF                                    
    132     (1,14,2)              0.0000000      SURF                                    
    133     (1,14,3)              0.0000000      SURF                                    
    134     (1,14,4)              0.0000000      SURF                                    
    135     (1,14,5)              0.0000000      SURF                                    
    136     (1,14,6)              0.0000000      SURF                                    
    137     (1,14,7)              0.0000000      SURF                                    
    138     (1,14,8)              0.0000000      SURF                                    
    139     (1,14,9)              0.0000000      SURF                                    
    140     (1,14,10)             0.0000000      SURF                                    
    141     (1,15,1)              0.0000000      SURF                                    
    142     (1,15,2)              0.0000000      SURF                                    
    143     (1,15,3)              0.0000000      SURF                                    
    144     (1,15,4)              0.0000000      SURF                                    
    145     (1,15,5)              0.0000000      SURF                                    
    146     (1,15,6)              0.0000000      SURF                                    
    147     (1,15,7)              0.0000000      SURF                                    
    148     (1,15,8)              0.0000000      SURF                                    
    149     (1,15,9)              0.0000000      SURF                                    
    150     (1,15,10)             0.0000000      SURF                                    
 ----------------------------------------------------------------------------------------




 API PACKAGE (MAR) FLOW RATES   PERIOD      2   STEP        5
 -----------------------------------------------
   NUMBER   CELLID                    RATE      
 -----------------------------------------------
     1      (1,6,5)               25.294403     
     2      (1,6,6)               25.294403     
     3      (1,6,7)               25.294403     
     4      (1,10,5)              64.705597     
     5      (1,10,6)              64.705597     
     6      (1,10,7)              64.705597     
 -----------------------------------------------



1
  HEAD IN LAYER   1 AT END OF TIME STEP   5 IN STRESS PERIOD    2
  ---------------------------------------------------------------------------

            1           2           3           4           5           6           7           8           9          10
 ........................................................................................................................
   1   4.8549E-09  3.6351E-08  2.5053E-07  1.3260E-06  4.4530E-06  5.2826E-06  4.4530E-06  1.3259E-06  2.5084E-07  4.0508E-08
   2   4.4414E-08  3.6961E-07  2.8348E-06  1.6777E-05  6.2887E-05  7.3848E-05  6.2887E-05  1.6777E-05  2.8385E-06  4.0956E-07
   3   3.9170E-07  3.6270E-06  3.1070E-05  2.0776E-04  8.8496E-04  1.0258E-03  8.8496E-04  2.0776E-04  3.1101E-05  3.9840E-06
   4   2.8840E-06  3.0082E-05  2.9258E-04  2.2631E-03  1.1339E-02  1.2916E-02  1.1339E-02  2.2631E-03  2.9279E-04  3.2735E-05
   5   1.5984E-05  1.9087E-04  2.1565E-03  1.9963E-02  0.1240      0.1376      0.1240      1.9963E-02  2.1576E-03  2.0571E-04
   6   5.1517E-05  7.1790E-04  9.7221E-03  0.1134      0.9426       1.000      0.9426      0.1134      9.7252E-03  7.6615E-04
   7   8.6702E-06  1.0403E-04  1.1493E-03  9.7381E-03  4.0366E-02 -0.3223      4.0366E-02  9.7382E-03  1.1499E-03  1.1209E-04
   8  -1.7532E-05 -2.4085E-04 -3.2925E-03 -4.1106E-02 -0.4522      -4.240     -0.4522     -4.1106E-02 -3.2936E-03 -2.5724E-04
   9  -6.6927E-06 -7.7683E-05 -8.7000E-04 -8.3778E-03 -6.5172E-02 -0.4430     -6.5172E-02 -8.3778E-03 -8.7046E-04 -8.3881E-05
  10   4.8178E-07  2.4726E-05  6.9339E-04  1.6272E-02  0.3378      0.3203      0.3378      1.6272E-02  6.9337E-04  2.5237E-05
  11   2.1953E-07  5.3065E-06  1.0174E-04  1.5832E-03  1.7635E-02  1.6510E-02  1.7635E-02  1.5832E-03  1.0175E-04  5.5221E-06
  12   3.2207E-08  6.0909E-07  9.3339E-06  1.1115E-04  8.6209E-04  7.8146E-04  8.6209E-04  1.1115E-04  9.3350E-06  6.4042E-07
  13   3.2034E-09  5.2621E-08  6.8713E-07  6.7190E-06  4.0619E-05  3.4753E-05  4.0619E-05  6.7191E-06  6.8739E-07  5.5875E-08
  14   2.1636E-10  3.6289E-09  4.3585E-08  3.6775E-07  1.8406E-06  1.4306E-06  1.8407E-06  3.6787E-07  4.3748E-08  4.0180E-09
  15  -2.2984E-11  6.4282E-11  2.2934E-09  1.8994E-08  8.2266E-08  5.3325E-08  8.2334E-08  1.9122E-08  2.4569E-09  2.2850E-10

 HEAD WILL BE SAVED ON UNIT 1100 AT END OF TIME STEP    5, STRESS PERIOD    2


  VOLUME BUDGET FOR ENTIRE MODEL AT END OF TIME STEP    5, STRESS PERIOD   2
  ---------------------------------------------------------------------------------------------------

     CUMULATIVE VOLUME      L**3       RATES FOR THIS TIME STEP      L**3/T          PACKAGE NAME    
     ------------------                 ------------------------                     ----------------

           IN:                                      IN:
           ---                                      ---
              STO-SS =           5.2695                STO-SS =       8.6496E-02     STORAGE                          
              STO-SY =       12405.2224                STO-SY =         224.3012     STORAGE                          
                 WEL =           0.0000                   WEL =           0.0000     WEL-1                            
                 DRN =           0.0000                   DRN =           0.0000     DRN-0                            
                 API =       10800.0000                   API =         270.0000     MAR                              
                 CHD =       2.0279E-08                   CHD =           0.0000     CHD_0                            

            TOTAL IN =       23210.4920              TOTAL IN =         494.3877

          OUT:                                     OUT:
          ----                                     ----
              STO-SS =           5.0141                STO-SS =           0.1139     STORAGE                          
              STO-SY =        9705.4779                STO-SY =         224.2738     STORAGE                          
                 WEL =       13500.0000                   WEL =         270.0000     WEL-1                            
                 DRN =       7.5724E-06                   DRN =       3.9797E-07     DRN-0                            
                 API =           0.0000                   API =           0.0000     MAR                              
                 CHD =       2.0705E-08                   CHD =           0.0000     CHD_0                            

           TOTAL OUT =       23210.4920             TOTAL OUT =         494.3877

            IN - OUT =       1.8557E-08              IN - OUT =       1.2835E-09

 PERCENT DISCREPANCY =           0.00     PERCENT DISCREPANCY =           0.00




         TIME SUMMARY AT END OF TIME STEP    5 IN STRESS PERIOD    2
                    SECONDS     MINUTES      HOURS       DAYS        YEARS
                    -----------------------------------------------------------
   TIME STEP LENGTH 8.64000E+05  14400.      240.00      10.000     2.73785E-02
 STRESS PERIOD TIME 4.32000E+06  72000.      1200.0      50.000     0.13689    
         TOTAL TIME 4.40640E+06  73440.      1224.0      51.000     0.13963    


end timestep


start timestep kper="2" kstp="6" mode="normal"

 UBDSV1 SAVING           STO-SS ON UNIT   1099 AT TIME STEP      6, STRESS PERIOD      2
 UBDSV1 SAVING           STO-SY ON UNIT   1099 AT TIME STEP      6, STRESS PERIOD      2
 UBDSV1 SAVING     FLOW-JA-FACE ON UNIT   1099 AT TIME STEP      6, STRESS PERIOD      2
 UBDSV06 SAVING       DATA-SPDIS IN MODEL GWF              PACKAGE NPF             CONNECTED TO MODEL GWF              PACKAGE NPF              ON UNIT   1099 AT TIME STEP      6, STRESS PERIOD      2
 UBDSV06 SAVING              WEL IN MODEL GWF              PACKAGE GWF             CONNECTED TO MODEL GWF              PACKAGE WEL-1            ON UNIT   1099 AT TIME STEP      6, STRESS PERIOD      2
 UBDSV06 SAVING              DRN IN MODEL GWF              PACKAGE GWF             CONNECTED TO MODEL GWF              PACKAGE DRN-0            ON UNIT   1099 AT TIME STEP      6, STRESS PERIOD      2
 UBDSV06 SAVING              API IN MODEL GWF              PACKAGE GWF             CONNECTED TO MODEL GWF              PACKAGE MAR              ON UNIT   1099 AT TIME STEP      6, STRESS PERIOD      2
 UBDSV06 SAVING              CHD IN MODEL GWF              PACKAGE GWF             CONNECTED TO MODEL GWF              PACKAGE CHD_0            ON UNIT   1099 AT TIME STEP      6, STRESS PERIOD      2

    CALCULATED INTERCELL FLOW FOR PERIOD 2 STEP 6
(1,1,1): (1,1,2) 8.738518E-07 (1,2,1) 1.101568E-06
(1,1,2): (1,1,1) -8.738518E-07 (1,1,3) 5.511717E-06 (1,2,2) 8.521044E-06
(1,1,3): (1,1,2) -5.511717E-06 (1,1,4) 2.540983E-05 (1,2,3) 6.069384E-05
(1,1,4): (1,1,3) -2.540983E-05 (1,1,5) 6.758000E-05 (1,2,4) 3.316718E-04
(1,1,5): (1,1,4) -6.758000E-05 (1,1,6) 1.925867E-05 (1,2,5) 1.148714E-03
(1,1,6): (1,1,5) -1.925867E-05 (1,1,7) -1.925901E-05 (1,2,6) 1.358277E-03
(1,1,7): (1,1,6) 1.925901E-05 (1,1,8) -6.757912E-05 (1,2,7) 1.148714E-03
(1,1,8): (1,1,7) 6.757912E-05 (1,1,9) -2.539700E-05 (1,2,8) 3.316811E-04
(1,1,9): (1,1,8) 2.539700E-05 (1,1,10) -5.396195E-06 (1,2,9) 6.079576E-05
(1,1,10): (1,1,9) 5.396195E-06 (1,2,10) 9.509966E-06
(1,2,1): (1,1,1) -1.101568E-06 (1,2,2) 8.293327E-06 (1,3,1) 8.910235E-06
(1,2,2): (1,1,2) -8.521044E-06 (1,2,1) -8.293327E-06 (1,2,3) 5.768451E-05 (1,3,2) 7.610959E-05
(1,2,3): (1,1,3) -6.069384E-05 (1,2,2) -5.768451E-05 (1,2,4) 2.963877E-04 (1,3,3) 5.999563E-04
(1,2,4): (1,1,4) -3.316718E-04 (1,2,3) -2.963877E-04 (1,2,5) 8.846196E-04 (1,3,4) 3.662218E-03
(1,2,5): (1,1,5) -1.148714E-03 (1,2,4) -8.846196E-04 (1,2,6) 2.288202E-04 (1,3,5) 1.419775E-02
(1,2,6): (1,1,6) -1.358277E-03 (1,2,5) -2.288202E-04 (1,2,7) -2.288199E-04 (1,3,6) 1.659457E-02
(1,2,7): (1,1,7) -1.148714E-03 (1,2,6) 2.288199E-04 (1,2,8) -8.846101E-04 (1,3,7) 1.419776E-02
(1,2,8): (1,1,8) -3.316811E-04 (1,2,7) 8.846101E-04 (1,2,9) -2.962823E-04 (1,3,8) 3.662284E-03
(1,2,9): (1,1,9) -6.079576E-05 (1,2,8) 2.962823E-04 (1,2,10) -5.668199E-05 (1,3,9) 6.007226E-04
(1,2,10): (1,1,10) -9.509966E-06 (1,2,9) 5.668199E-05 (1,3,10) 8.418175E-05
(1,3,1): (1,2,1) -8.910235E-06 (1,3,2) 7.549269E-05 (1,4,1) 5.832234E-05
(1,3,2): (1,2,2) -7.610959E-05 (1,3,1) -7.549269E-05 (1,3,3) 5.815311E-04 (1,4,2) 5.582051E-04
(1,3,3): (1,2,3) -5.999563E-04 (1,3,2) -5.815311E-04 (1,3,4) 3.358640E-03 (1,4,3) 4.956090E-03
(1,3,4): (1,2,4) -3.662218E-03 (1,3,3) -3.358640E-03 (1,3,5) 1.141986E-02 (1,4,4) 3.458215E-02
(1,3,5): (1,2,5) -1.419775E-02 (1,3,4) -1.141986E-02 (1,3,6) 2.625300E-03 (1,4,5) 0.154942
(1,3,6): (1,2,6) -1.659457E-02 (1,3,5) -2.625300E-03 (1,3,7) -2.625294E-03 (1,4,6) 0.178133
(1,3,7): (1,2,7) -1.419776E-02 (1,3,6) 2.625294E-03 (1,3,8) -1.141979E-02 (1,4,7) 0.154942
(1,3,8): (1,2,8) -3.662284E-03 (1,3,7) 1.141979E-02 (1,3,9) -3.357834E-03 (1,4,8) 3.458251E-02
(1,3,9): (1,2,9) -6.007226E-04 (1,3,8) 3.357834E-03 (1,3,10) -5.732227E-04 (1,4,9) 4.960691E-03
(1,3,10): (1,2,10) -8.418175E-05 (1,3,9) 5.732227E-04 (1,4,10) 6.115366E-04
(1,4,1): (1,3,1) -5.832234E-05 (1,4,2) 5.753755E-04 (1,5,1) 2.761807E-04
(1,4,2): (1,3,2) -5.582051E-04 (1,4,1) -5.753755E-04 (1,4,3) 4.979417E-03 (1,5,2) 3.018338E-03
(1,4,3): (1,3,3) -4.956090E-03 (1,4,2) -4.979417E-03 (1,4,4) 3.298423E-02 (1,5,3) 3.092177E-02
(1,4,4): (1,3,4) -3.458215E-02 (1,4,3) -3.298423E-02 (1,4,5) 0.131752 (1,5,4) 0.255238
(1,4,5): (1,3,5) -0.154942 (1,4,4) -0.131752 (1,4,6) 2.578152E-02 (1,5,5) 1.39605
(1,4,6): (1,3,6) -0.178133 (1,4,5) -2.578152E-02 (1,4,7) -2.578149E-02 (1,5,6) 1.56417
(1,4,7): (1,3,7) -0.154942 (1,4,6) 2.578149E-02 (1,4,8) -0.131751 (1,5,7) 1.39605
(1,4,8): (1,3,8) -3.458251E-02 (1,4,7) 0.131751 (1,4,9) -3.297918E-02 (1,5,8) 0.255239
(1,4,9): (1,3,9) -4.960691E-03 (1,4,8) 3.297918E-02 (1,4,10) -4.922375E-03 (1,5,9) 3.094147E-02
(1,4,10): (1,3,10) -6.115366E-04 (1,4,9) 4.922375E-03 (1,5,10) 3.273341E-03
(1,5,1): (1,4,1) -2.761807E-04 (1,5,2) 3.317541E-03 (1,6,1) 6.568703E-04
(1,5,2): (1,4,2) -3.018338E-03 (1,5,1) -3.317541E-03 (1,5,3) 3.288339E-02 (1,6,2) 8.537982E-03
(1,5,3): (1,4,3) -3.092177E-02 (1,5,2) -3.288339E-02 (1,5,4) 0.257305 (1,6,3) 0.106020
(1,5,4): (1,4,4) -0.255238 (1,5,3) -0.257305 (1,5,5) 1.27119 (1,6,4) 1.11135
(1,5,5): (1,4,5) -1.39605 (1,5,4) -1.27119 (1,5,6) 0.191706 (1,6,5) 8.58700
(1,5,6): (1,4,6) -1.56417 (1,5,5) -0.191706 (1,5,7) -0.191705 (1,6,6) 9.09329
(1,5,7): (1,4,7) -1.39605 (1,5,6) 0.191705 (1,5,8) -1.27118 (1,6,7) 8.58700
(1,5,8): (1,4,8) -0.255239 (1,5,7) 1.27118 (1,5,9) -0.257281 (1,6,8) 1.11136
(1,5,9): (1,4,9) -3.094147E-02 (1,5,8) 0.257281 (1,5,10) -3.259096E-02 (1,6,9) 0.106061
(1,5,10): (1,4,10) -3.273341E-03 (1,5,9) 3.259096E-02 (1,6,10) 9.151243E-03
(1,6,1): (1,5,1) -6.568703E-04 (1,6,2) 1.119886E-02 (1,7,1) -8.100470E-04
(1,6,2): (1,5,2) -8.537982E-03 (1,6,1) -1.119886E-02 (1,6,3) 0.130389 (1,7,2) -1.020107E-02
(1,6,3): (1,5,3) -0.106020 (1,6,2) -0.130389 (1,6,4) 1.26413 (1,7,3) -0.123650
(1,6,4): (1,5,4) -1.11135 (1,6,3) -1.26413 (1,6,5) 8.75735 (1,7,4) -1.27539
(1,6,5): (1,5,5) -8.58700 (1,6,4) -8.75735 (1,6,6) 0.666051 (1,7,5) -9.88463
(1,6,6): (1,5,6) -9.09329 (1,6,5) -0.666051 (1,6,7) -0.666050 (1,7,6) -15.5067
(1,6,7): (1,5,7) -8.58700 (1,6,6) 0.666050 (1,6,8) -8.75734 (1,7,7) -9.88463
(1,6,8): (1,5,8) -1.11136 (1,6,7) 8.75734 (1,6,9) -1.26407 (1,7,8) -1.27539
(1,6,9): (1,5,9) -0.106061 (1,6,8) 1.26407 (1,6,10) -0.129523 (1,7,9) -0.123702
(1,6,10): (1,5,10) -9.151243E-03 (1,6,9) 0.129523 (1,7,10) -1.095547E-02
(1,7,1): (1,6,1) 8.100470E-04 (1,7,2) 1.807742E-03 (1,8,1) -5.210683E-04
(1,7,2): (1,6,2) 1.020107E-02 (1,7,1) -1.807742E-03 (1,7,3) 1.693247E-02 (1,8,2) -6.138038E-03
(1,7,3): (1,6,3) 0.123650 (1,7,2) -1.693247E-02 (1,7,4) 0.112522 (1,8,3) -7.046245E-02
(1,7,4): (1,6,4) 1.27539 (1,7,3) -0.112522 (1,7,5) 0.228256 (1,8,4) -0.712351
(1,7,5): (1,6,5) 9.88463 (1,7,4) -0.228256 (1,7,6) -4.47174 (1,8,5) -6.08350
(1,7,6): (1,6,6) 15.5067 (1,7,5) 4.47174 (1,7,7) 4.47174 (1,8,6) -41.9345
(1,7,7): (1,6,7) 9.88463 (1,7,6) -4.47174 (1,7,8) -0.228255 (1,8,7) -6.08350
(1,7,8): (1,6,8) 1.27539 (1,7,7) 0.228255 (1,7,9) -0.112509 (1,8,8) -0.712354
(1,7,9): (1,6,9) 0.123702 (1,7,8) 0.112509 (1,7,10) -1.677003E-02 (1,8,9) -7.049799E-02
(1,7,10): (1,6,10) 1.095547E-02 (1,7,9) 1.677003E-02 (1,8,10) -6.620975E-03
(1,8,1): (1,7,1) 5.210683E-04 (1,8,2) -3.809129E-03 (1,9,1) 2.012895E-04
(1,8,2): (1,7,2) 6.138038E-03 (1,8,1) 3.809129E-03 (1,8,3) -4.737998E-02 (1,9,2) 2.810379E-03
(1,8,3): (1,7,3) 7.046245E-02 (1,8,2) 4.737998E-02 (1,8,4) -0.528321 (1,9,3) 3.837889E-02
(1,8,4): (1,7,4) 0.712351 (1,8,3) 0.528321 (1,8,5) -5.09318 (1,9,4) 0.469672
(1,8,5): (1,7,5) 6.08350 (1,8,4) 5.09318 (1,8,6) -39.7179 (1,9,5) 4.91024
(1,8,6): (1,7,6) 41.9345 (1,8,5) 39.7179 (1,8,7) 39.7179 (1,9,6) 40.1365
(1,8,7): (1,7,7) 6.08350 (1,8,6) -39.7179 (1,8,8) 5.09318 (1,9,7) 4.91024
(1,8,8): (1,7,8) 0.712354 (1,8,7) -5.09318 (1,8,9) 0.528301 (1,9,8) 0.469672
(1,8,9): (1,7,9) 7.049799E-02 (1,8,8) -0.528301 (1,8,10) 4.709486E-02 (1,9,9) 3.839079E-02
(1,8,10): (1,7,10) 6.620975E-03 (1,8,9) -4.709486E-02 (1,9,10) 2.999000E-03
(1,9,1): (1,8,1) -2.012895E-04 (1,9,2) -1.200014E-03 (1,10,1) 1.734047E-04
(1,9,2): (1,8,2) -2.810379E-03 (1,9,1) 1.200014E-03 (1,9,3) -1.180826E-02 (1,10,2) 2.383635E-03
(1,9,3): (1,8,3) -3.837889E-02 (1,9,2) 1.180826E-02 (1,9,4) -9.677616E-02 (1,10,3) 3.456797E-02
(1,9,4): (1,8,4) -0.469672 (1,9,3) 9.677616E-02 (1,9,5) -0.644763 (1,10,4) 0.494443
(1,9,5): (1,8,5) -4.91024 (1,9,4) 0.644763 (1,9,6) -4.60632 (1,10,5) 6.79721
(1,9,6): (1,8,6) -40.1365 (1,9,5) 4.60632 (1,9,7) 4.60632 (1,10,6) 11.5735
(1,9,7): (1,8,7) -4.91024 (1,9,6) -4.60632 (1,9,8) 0.644763 (1,10,7) 6.79721
(1,9,8): (1,8,8) -0.469672 (1,9,7) -0.644763 (1,9,9) 9.676727E-02 (1,10,8) 0.494443
(1,9,9): (1,8,9) -3.839079E-02 (1,9,8) -9.676727E-02 (1,9,10) 1.169999E-02 (1,10,9) 3.457885E-02
(1,9,10): (1,8,10) -2.999000E-03 (1,9,9) -1.169999E-02 (1,10,10) 2.545404E-03
(1,10,1): (1,9,1) -1.734047E-04 (1,10,2) 1.010201E-03 (1,11,1) -3.048896E-05
(1,10,2): (1,9,2) -2.383635E-03 (1,10,1) -1.010201E-03 (1,10,3) 2.037290E-02 (1,11,2) -8.101810E-04
(1,10,3): (1,9,3) -3.456797E-02 (1,10,2) -2.037290E-02 (1,10,4) 0.362591 (1,11,3) -1.770619E-02
(1,10,4): (1,9,4) -0.494443 (1,10,3) -0.362591 (1,10,5) 5.59458 (1,11,4) -0.337018
(1,10,5): (1,9,5) -6.79721 (1,10,4) -5.59458 (1,10,6) -0.116461 (1,11,5) -5.55920
(1,10,6): (1,9,6) -11.5735 (1,10,5) 0.116461 (1,10,7) 0.116461 (1,11,6) -5.43607
(1,10,7): (1,9,7) -6.79721 (1,10,6) -0.116461 (1,10,8) -5.59458 (1,11,7) -5.55920
(1,10,8): (1,9,8) -0.494443 (1,10,7) 5.59458 (1,10,9) -0.362589 (1,11,8) -0.337018
(1,10,9): (1,9,9) -3.457885E-02 (1,10,8) 0.362589 (1,10,10) -2.033026E-02 (1,11,9) -1.770676E-02
(1,10,10): (1,9,10) -2.545404E-03 (1,10,9) 2.033026E-02 (1,11,10) -8.401405E-04
(1,11,1): (1,10,1) 3.048896E-05 (1,11,2) 2.305073E-04 (1,12,1) -1.229520E-05
(1,11,2): (1,10,2) 8.101810E-04 (1,11,1) -2.305073E-04 (1,11,3) 3.476448E-03 (1,12,2) -2.128837E-04
(1,11,3): (1,10,3) 1.770619E-02 (1,11,2) -3.476448E-03 (1,11,4) 4.319743E-02 (1,12,3) -3.319891E-03
(1,11,4): (1,10,4) 0.337018 (1,11,3) -4.319743E-02 (1,11,5) 0.370748 (1,12,4) -4.293069E-02
(1,11,5): (1,10,5) 5.55920 (1,11,4) -0.370748 (1,11,6) 9.478207E-04 (1,12,5) -0.391833
(1,11,6): (1,10,6) 5.43607 (1,11,5) -9.478207E-04 (1,11,7) -9.478201E-04 (1,12,6) -0.392513
(1,11,7): (1,10,7) 5.55920 (1,11,6) 9.478201E-04 (1,11,8) -0.370748 (1,12,7) -0.391833
(1,11,8): (1,10,8) 0.337018 (1,11,7) 0.370748 (1,11,9) -4.319678E-02 (1,12,8) -4.293071E-02
(1,11,9): (1,10,9) 1.770676E-02 (1,11,8) 4.319678E-02 (1,11,10) -3.463198E-03 (1,12,9) -3.320437E-03
(1,11,10): (1,10,10) 8.401405E-04 (1,11,9) 3.463198E-03 (1,12,10) -2.246139E-04
(1,12,1): (1,11,1) 1.229520E-05 (1,12,2) 2.991884E-05 (1,13,1) -2.057585E-06
(1,12,2): (1,11,2) 2.128837E-04 (1,12,1) -2.991884E-05 (1,12,3) 3.694350E-04 (1,13,2) -2.900069E-05
(1,12,3): (1,11,3) 3.319891E-03 (1,12,2) -3.694350E-04 (1,12,4) 3.586527E-03 (1,13,3) -3.670455E-04
(1,12,4): (1,11,4) 4.293069E-02 (1,12,3) -3.586527E-03 (1,12,5) 2.191846E-02 (1,13,4) -3.701599E-03
(1,12,5): (1,11,5) 0.391833 (1,12,4) -2.191846E-02 (1,12,6) 2.698376E-04 (1,13,5) -2.441148E-02
(1,12,6): (1,11,6) 0.392513 (1,12,5) -2.698376E-04 (1,12,7) -2.698369E-04 (1,13,6) -2.466919E-02
(1,12,7): (1,11,7) 0.391833 (1,12,6) 2.698369E-04 (1,12,8) -2.191846E-02 (1,13,7) -2.441149E-02
(1,12,8): (1,11,8) 4.293071E-02 (1,12,7) 2.191846E-02 (1,12,9) -3.586404E-03 (1,13,8) -3.701604E-03
(1,12,9): (1,11,9) 3.320437E-03 (1,12,8) 3.586404E-03 (1,12,10) -3.673706E-04 (1,13,9) -3.671574E-04
(1,12,10): (1,11,10) 2.246139E-04 (1,12,9) 3.673706E-04 (1,13,10) -3.094047E-05
(1,13,1): (1,12,1) 2.057585E-06 (1,13,2) 2.975732E-06 (1,14,1) -2.455682E-07
(1,13,2): (1,12,2) 2.900069E-05 (1,13,1) -2.975732E-06 (1,13,3) 3.139012E-05 (1,14,2) -2.971390E-06
(1,13,3): (1,12,3) 3.670455E-04 (1,13,2) -3.139012E-05 (1,13,4) 2.519775E-04 (1,14,3) -3.203850E-05
(1,13,4): (1,12,4) 3.701599E-03 (1,13,3) -2.519775E-04 (1,13,5) 1.209091E-03 (1,14,4) -2.680400E-04
(1,13,5): (1,12,5) 2.441148E-02 (1,13,4) -1.209091E-03 (1,13,6) 1.219511E-05 (1,14,5) -1.413707E-03
(1,13,6): (1,12,6) 2.466919E-02 (1,13,5) -1.219511E-05 (1,13,7) -1.219452E-05 (1,14,6) -1.426163E-03
(1,13,7): (1,12,7) 2.441149E-02 (1,13,6) 1.219452E-05 (1,13,8) -1.209090E-03 (1,14,7) -1.413707E-03
(1,13,8): (1,12,8) 3.701604E-03 (1,13,7) 1.209090E-03 (1,13,9) -2.519611E-04 (1,14,8) -2.680408E-04
(1,13,9): (1,12,9) 3.671574E-04 (1,13,8) 2.519611E-04 (1,13,10) -3.115365E-05 (1,14,9) -3.205362E-05
(1,13,10): (1,12,10) 3.094047E-05 (1,13,9) 3.115365E-05 (1,14,10) -3.200679E-06
(1,14,1): (1,13,1) 2.455682E-07 (1,14,2) 2.499102E-07 (1,15,1) -2.383514E-08
(1,14,2): (1,13,2) 2.971390E-06 (1,14,1) -2.499102E-07 (1,14,3) 2.323011E-06 (1,15,2) -2.549864E-07
(1,14,3): (1,13,3) 3.203850E-05 (1,14,2) -2.323011E-06 (1,14,4) 1.597601E-05 (1,15,3) -2.413728E-06
(1,14,4): (1,13,4) 2.680400E-04 (1,14,3) -1.597601E-05 (1,14,5) 6.342646E-05 (1,15,4) -1.739769E-05
(1,14,5): (1,13,5) 1.413707E-03 (1,14,4) -6.342646E-05 (1,14,6) -2.609726E-07 (1,15,5) -7.747925E-05
(1,14,6): (1,13,6) 1.426163E-03 (1,14,5) 2.609726E-07 (1,14,7) 2.616052E-07 (1,15,6) -7.733099E-05
(1,14,7): (1,13,7) 1.413707E-03 (1,14,6) -2.616052E-07 (1,14,8) -6.342580E-05 (1,15,7) -7.747921E-05
(1,14,8): (1,13,8) 2.680408E-04 (1,14,7) 6.342580E-05 (1,14,9) -1.597398E-05 (1,15,8) -1.739771E-05
(1,14,9): (1,13,9) 3.205362E-05 (1,14,8) 1.597398E-05 (1,14,10) -2.300712E-06 (1,15,9) -2.415274E-06
(1,14,10): (1,13,10) 3.200679E-06 (1,14,9) 2.300712E-06 (1,15,10) -2.770197E-07
(1,15,1): (1,14,1) 2.383514E-08 (1,15,2) 1.875888E-08
(1,15,2): (1,14,2) 2.549864E-07 (1,15,1) -1.875888E-08 (1,15,3) 1.642701E-07
(1,15,3): (1,14,3) 2.413728E-06 (1,15,2) -1.642701E-07 (1,15,4) 9.920485E-07
(1,15,4): (1,14,4) 1.739769E-05 (1,15,3) -9.920485E-07 (1,15,5) 3.344909E-06
(1,15,5): (1,14,5) 7.747925E-05 (1,15,4) -3.344909E-06 (1,15,6) -1.127175E-07
(1,15,6): (1,14,6) 7.733099E-05 (1,15,5) 1.127175E-07 (1,15,7) 1.133933E-07
(1,15,7): (1,14,7) 7.747921E-05 (1,15,6) -1.133933E-07 (1,15,8) -3.344312E-06
(1,15,8): (1,14,8) 1.739771E-05 (1,15,7) 3.344312E-06 (1,15,9) -9.915430E-07
(1,15,9): (1,14,9) 2.415274E-06 (1,15,8) 9.915430E-07 (1,15,10) -1.624581E-07
(1,15,10): (1,14,10) 2.770197E-07 (1,15,9) 1.624581E-07

 WEL PACKAGE (WEL-1) FLOW RATES   PERIOD      2   STEP        6
 ----------------------------------------------------------------------------------------
   NUMBER   CELLID                    RATE       NAME                                    
 ----------------------------------------------------------------------------------------
     1      (1,8,6)              -270.00000      WEL                                     
 ----------------------------------------------------------------------------------------




 DRN PACKAGE (DRN-0) FLOW RATES   PERIOD      2   STEP        6
 ----------------------------------------------------------------------------------------
   NUMBER   CELLID                    RATE       NAME                                    
 ----------------------------------------------------------------------------------------
     1      (1,1,1)               0.0000000      SURF                                    
     2      (1,1,2)               0.0000000      SURF                                    
     3      (1,1,3)               0.0000000      SURF                                    
     4      (1,1,4)               0.0000000      SURF                                    
     5      (1,1,5)               0.0000000      SURF                                    
     6      (1,1,6)               0.0000000      SURF                                    
     7      (1,1,7)               0.0000000      SURF                                    
     8      (1,1,8)               0.0000000      SURF                                    
     9      (1,1,9)               0.0000000      SURF                                    
     10     (1,1,10)              0.0000000      SURF                                    
     11     (1,2,1)               0.0000000      SURF                                    
     12     (1,2,2)               0.0000000      SURF                                    
     13     (1,2,3)               0.0000000      SURF                                    
     14     (1,2,4)               0.0000000      SURF                                    
     15     (1,2,5)               0.0000000      SURF                                    
     16     (1,2,6)               0.0000000      SURF                                    
     17     (1,2,7)               0.0000000      SURF                                    
     18     (1,2,8)               0.0000000      SURF                                    
     19     (1,2,9)               0.0000000      SURF                                    
     20     (1,2,10)              0.0000000      SURF                                    
     21     (1,3,1)               0.0000000      SURF                                    
     22     (1,3,2)               0.0000000      SURF                                    
     23     (1,3,3)               0.0000000      SURF                                    
     24     (1,3,4)               0.0000000      SURF                                    
     25     (1,3,5)               0.0000000      SURF                                    
     26     (1,3,6)               0.0000000      SURF                                    
     27     (1,3,7)               0.0000000      SURF                                    
     28     (1,3,8)               0.0000000      SURF                                    
     29     (1,3,9)               0.0000000      SURF                                    
     30     (1,3,10)              0.0000000      SURF                                    
     31     (1,4,1)               0.0000000      SURF                                    
     32     (1,4,2)               0.0000000      SURF                                    
     33     (1,4,3)               0.0000000      SURF                                    
     34     (1,4,4)               0.0000000      SURF                                    
     35     (1,4,5)               0.0000000      SURF                                    
     36     (1,4,6)               0.0000000      SURF                                    
     37     (1,4,7)               0.0000000      SURF                                    
     38     (1,4,8)               0.0000000      SURF                                    
     39     (1,4,9)               0.0000000      SURF                                    
     40     (1,4,10)              0.0000000      SURF                                    
     41     (1,5,1)               0.0000000      SURF                                    
     42     (1,5,2)               0.0000000      SURF                                    
     43     (1,5,3)               0.0000000      SURF                                    
     44     (1,5,4)               0.0000000      SURF                                    
     45     (1,5,5)               0.0000000      SURF                                    
     46     (1,5,6)               0.0000000      SURF                                    
     47     (1,5,7)               0.0000000      SURF                                    
     48     (1,5,8)               0.0000000      SURF                                    
     49     (1,5,9)               0.0000000      SURF                                    
     50     (1,5,10)              0.0000000      SURF                                    
     51     (1,6,1)               0.0000000      SURF                                    
     52     (1,6,2)               0.0000000      SURF                                    
     53     (1,6,3)               0.0000000      SURF                                    
     54     (1,6,4)               0.0000000      SURF                                    
     55     (1,6,5)               0.0000000      SURF                                    
     56     (1,6,6)              -4.08079359E-07 SURF                                    
     57     (1,6,7)               0.0000000      SURF                                    
     58     (1,6,8)               0.0000000      SURF                                    
     59     (1,6,9)               0.0000000      SURF                                    
     60     (1,6,10)              0.0000000      SURF                                    
     61     (1,7,1)               0.0000000      SURF                                    
     62     (1,7,2)               0.0000000      SURF                                    
     63     (1,7,3)               0.0000000      SURF                                    
     64     (1,7,4)               0.0000000      SURF                                    
     65     (1,7,5)               0.0000000      SURF                                    
     66     (1,7,6)               0.0000000      SURF                                    
     67     (1,7,7)               0.0000000      SURF                                    
     68     (1,7,8)               0.0000000      SURF                                    
     69     (1,7,9)               0.0000000      SURF                                    
     70     (1,7,10)              0.0000000      SURF                                    
     71     (1,8,1)               0.0000000      SURF                                    
     72     (1,8,2)               0.0000000      SURF                                    
     73     (1,8,3)               0.0000000      SURF                                    
     74     (1,8,4)               0.0000000      SURF                                    
     75     (1,8,5)               0.0000000      SURF                                    
     76     (1,8,6)               0.0000000      SURF                                    
     77     (1,8,7)               0.0000000      SURF                                    
     78     (1,8,8)               0.0000000      SURF                                    
     79     (1,8,9)               0.0000000      SURF                                    
     80     (1,8,10)              0.0000000      SURF                                    
     81     (1,9,1)               0.0000000      SURF                                    
     82     (1,9,2)               0.0000000      SURF                                    
     83     (1,9,3)               0.0000000      SURF                                    
     84     (1,9,4)               0.0000000      SURF                                    
     85     (1,9,5)               0.0000000      SURF                                    
     86     (1,9,6)               0.0000000      SURF                                    
     87     (1,9,7)               0.0000000      SURF                                    
     88     (1,9,8)               0.0000000      SURF                                    
     89     (1,9,9)               0.0000000      SURF                                    
     90     (1,9,10)              0.0000000      SURF                                    
     91     (1,10,1)              0.0000000      SURF                                    
     92     (1,10,2)              0.0000000      SURF                                    
     93     (1,10,3)              0.0000000      SURF                                    
     94     (1,10,4)              0.0000000      SURF                                    
     95     (1,10,5)              0.0000000      SURF                                    
     96     (1,10,6)              0.0000000      SURF                                    
     97     (1,10,7)              0.0000000      SURF                                    
     98     (1,10,8)              0.0000000      SURF                                    
     99     (1,10,9)              0.0000000      SURF                                    
    100     (1,10,10)             0.0000000      SURF                                    
    101     (1,11,1)              0.0000000      SURF                                    
    102     (1,11,2)              0.0000000      SURF                                    
    103     (1,11,3)              0.0000000      SURF                                    
    104     (1,11,4)              0.0000000      SURF                                    
    105     (1,11,5)              0.0000000      SURF                                    
    106     (1,11,6)              0.0000000      SURF                                    
    107     (1,11,7)              0.0000000      SURF                                    
    108     (1,11,8)              0.0000000      SURF                                    
    109     (1,11,9)              0.0000000      SURF                                    
    110     (1,11,10)             0.0000000      SURF                                    
    111     (1,12,1)              0.0000000      SURF                                    
    112     (1,12,2)              0.0000000      SURF                                    
    113     (1,12,3)              0.0000000      SURF                                    
    114     (1,12,4)              0.0000000      SURF                                    
    115     (1,12,5)              0.0000000      SURF                                    
    116     (1,12,6)              0.0000000      SURF                                    
    117     (1,12,7)              0.0000000      SURF                                    
    118     (1,12,8)              0.0000000      SURF                                    
    119     (1,12,9)              0.0000000      SURF                                    
    120     (1,12,10)             0.0000000      SURF                                    
    121     (1,13,1)              0.0000000      SURF                                    
    122     (1,13,2)              0.0000000      SURF                                    
    123     (1,13,3)              0.0000000      SURF                                    
    124     (1,13,4)              0.0000000      SURF                                    
    125     (1,13,5)              0.0000000      SURF                                    
    126     (1,13,6)              0.0000000      SURF                                    
    127     (1,13,7)              0.0000000      SURF                                    
    128     (1,13,8)              0.0000000      SURF                                    
    129     (1,13,9)              0.0000000      SURF                                    
    130     (1,13,10)             0.0000000      SURF                                    
    131     (1,14,1)              0.0000000      SURF                                    
    132     (1,14,2)              0.0000000      SURF                                    
    133     (1,14,3)              0.0000000      SURF                                    
    134     (1,14,4)              0.0000000      SURF                                    
    135     (1,14,5)              0.0000000      SURF                                    
    136     (1,14,6)              0.0000000      SURF                                    
    137     (1,14,7)              0.0000000      SURF                                    
    138     (1,14,8)              0.0000000      SURF                                    
    139     (1,14,9)              0.0000000      SURF                                    
    140     (1,14,10)             0.0000000      SURF                                    
    141     (1,15,1)              0.0000000      SURF                                    
    142     (1,15,2)              0.0000000      SURF                                    
    143     (1,15,3)              0.0000000      SURF                                    
    144     (1,15,4)              0.0000000      SURF                                    
    145     (1,15,5)              0.0000000      SURF                                    
    146     (1,15,6)              0.0000000      SURF                                    
    147     (1,15,7)              0.0000000      SURF                                    
    148     (1,15,8)              0.0000000      SURF                                    
    149     (1,15,9)              0.0000000      SURF                                    
    150     (1,15,10)             0.0000000      SURF                                    
 ----------------------------------------------------------------------------------------




 API PACKAGE (MAR) FLOW RATES   PERIOD      2   STEP        6
 -----------------------------------------------
   NUMBER   CELLID                    RATE      
 -----------------------------------------------
     1      (1,6,5)               25.932112     
     2      (1,6,6)               25.932112     
     3      (1,6,7)               25.932112     
     4      (1,10,5)              64.067888     
     5      (1,10,6)              64.067888     
     6      (1,10,7)              64.067888     
 -----------------------------------------------



1
  HEAD IN LAYER   1 AT END OF TIME STEP   6 IN STRESS PERIOD    2
  ---------------------------------------------------------------------------

            1           2           3           4           5           6           7           8           9          10
 ........................................................................................................................
   1   1.4727E-08  1.0211E-07  6.5328E-07  3.1943E-06  9.9523E-06  1.1878E-05  9.9522E-06  3.1943E-06  6.5462E-07  1.1500E-07
   2   1.2488E-07  9.5422E-07  6.7227E-06  3.6361E-05  1.2482E-04  1.4770E-04  1.2482E-04  3.6362E-05  6.7342E-06  1.0660E-06
   3   1.0159E-06  8.5652E-06  6.6718E-05  4.0257E-04  1.5444E-03  1.8069E-03  1.5444E-03  4.0258E-04  6.6806E-05  9.4842E-06
   4   6.8481E-06  6.4385E-05  5.6230E-04  3.8594E-03  1.7012E-02  1.9585E-02  1.7012E-02  3.8595E-03  5.6285E-04  7.0637E-05
   5   3.4466E-05  3.6621E-04  3.6533E-03  2.9309E-02  0.1545      0.1733      0.1545      2.9309E-02  3.6559E-03  3.9796E-04
   6   1.0015E-04  1.2199E-03  1.4240E-02  0.1389      0.9394       1.000      0.9394      0.1389      1.4247E-02  1.3130E-03
   7   1.9149E-05  1.9992E-04  1.8928E-03  1.3130E-02  3.5874E-02 -0.4097      3.5874E-02  1.3130E-02  1.8942E-03  2.1756E-04
   8  -3.2958E-05 -4.1387E-04 -5.1521E-03 -5.8011E-02 -0.5703      -4.782     -0.5703     -5.8012E-02 -5.1542E-03 -4.4452E-04
   9  -1.2829E-05 -1.3283E-04 -1.3137E-03 -1.0993E-02 -7.5540E-02 -0.5397     -7.5540E-02 -1.0993E-02 -1.3146E-03 -1.4462E-04
  10   4.5113E-06  1.0553E-04  2.1424E-03  3.8263E-02  0.5677      0.5566      0.5677      3.8263E-02  2.1425E-03  1.0992E-04
  11   1.4624E-06  2.4513E-05  3.7214E-04  4.6899E-03  4.1611E-02  4.1705E-02  4.1611E-02  4.6899E-03  3.7221E-04  2.5906E-05
  12   2.3289E-07  3.2248E-06  4.0168E-05  3.9881E-04  2.5901E-03  2.6171E-03  2.5901E-03  3.9881E-04  4.0181E-05  3.4442E-06
  13   2.7130E-08  3.2470E-07  3.4637E-06  2.8661E-05  1.4957E-04  1.5079E-04  1.4957E-04  2.8662E-05  3.4656E-06  3.5019E-07
  14   2.5734E-09  2.7564E-08  2.5987E-07  1.8575E-06  8.2001E-06  8.1740E-06  8.2002E-06  1.8576E-06  2.6020E-07  3.0127E-08
  15   1.8988E-10  2.0658E-09  1.8493E-08  1.1770E-07  4.5219E-07  4.4092E-07  4.5226E-07  1.1782E-07  1.8671E-08  2.4248E-09

 HEAD WILL BE SAVED ON UNIT 1100 AT END OF TIME STEP    6, STRESS PERIOD    2


  VOLUME BUDGET FOR ENTIRE MODEL AT END OF TIME STEP    6, STRESS PERIOD   2
  ---------------------------------------------------------------------------------------------------

     CUMULATIVE VOLUME      L**3       RATES FOR THIS TIME STEP      L**3/T          PACKAGE NAME    
     ------------------                 ------------------------                     ----------------

           IN:                                      IN:
           ---                                      ---
              STO-SS =           6.0479                STO-SS =       7.7841E-02     STORAGE                          
              STO-SY =       14490.7652                STO-SY =         208.5543     STORAGE                          
                 WEL =           0.0000                   WEL =           0.0000     WEL-1                            
                 DRN =           0.0000                   DRN =           0.0000     DRN-0                            
                 API =       13500.0000                   API =         270.0000     MAR                              
                 CHD =       2.0279E-08                   CHD =           0.0000     CHD_0                            

            TOTAL IN =       27996.8132              TOTAL IN =         478.6321

          OUT:                                     OUT:
          ----                                     ----
              STO-SS =           6.0904                STO-SS =           0.1076     STORAGE                          
              STO-SY =       11790.7228                STO-SY =         208.5245     STORAGE                          
                 WEL =       16200.0000                   WEL =         270.0000     WEL-1                            
                 DRN =       1.1653E-05                   DRN =       4.0808E-07     DRN-0                            
                 API =           0.0000                   API =           0.0000     MAR                              
                 CHD =       2.0705E-08                   CHD =           0.0000     CHD_0                            

           TOTAL OUT =       27996.8132             TOTAL OUT =         478.6321

            IN - OUT =       3.2713E-08              IN - OUT =       1.4156E-09

 PERCENT DISCREPANCY =           0.00     PERCENT DISCREPANCY =           0.00




         TIME SUMMARY AT END OF TIME STEP    6 IN STRESS PERIOD    2
                    SECONDS     MINUTES      HOURS       DAYS        YEARS
                    -----------------------------------------------------------
   TIME STEP LENGTH 8.64000E+05  14400.      240.00      10.000     2.73785E-02
 STRESS PERIOD TIME 5.18400E+06  86400.      1440.0      60.000     0.16427    
         TOTAL TIME 5.27040E+06  87840.      1464.0      61.000     0.16701    


end timestep


start timestep kper="2" kstp="7" mode="normal"

 UBDSV1 SAVING           STO-SS ON UNIT   1099 AT TIME STEP      7, STRESS PERIOD      2
 UBDSV1 SAVING           STO-SY ON UNIT   1099 AT TIME STEP      7, STRESS PERIOD      2
 UBDSV1 SAVING     FLOW-JA-FACE ON UNIT   1099 AT TIME STEP      7, STRESS PERIOD      2
 UBDSV06 SAVING       DATA-SPDIS IN MODEL GWF              PACKAGE NPF             CONNECTED TO MODEL GWF              PACKAGE NPF              ON UNIT   1099 AT TIME STEP      7, STRESS PERIOD      2
 UBDSV06 SAVING              WEL IN MODEL GWF              PACKAGE GWF             CONNECTED TO MODEL GWF              PACKAGE WEL-1            ON UNIT   1099 AT TIME STEP      7, STRESS PERIOD      2
 UBDSV06 SAVING              DRN IN MODEL GWF              PACKAGE GWF             CONNECTED TO MODEL GWF              PACKAGE DRN-0            ON UNIT   1099 AT TIME STEP      7, STRESS PERIOD      2
 UBDSV06 SAVING              API IN MODEL GWF              PACKAGE GWF             CONNECTED TO MODEL GWF              PACKAGE MAR              ON UNIT   1099 AT TIME STEP      7, STRESS PERIOD      2
 UBDSV06 SAVING              CHD IN MODEL GWF              PACKAGE GWF             CONNECTED TO MODEL GWF              PACKAGE CHD_0            ON UNIT   1099 AT TIME STEP      7, STRESS PERIOD      2

    CALCULATED INTERCELL FLOW FOR PERIOD 2 STEP 7
(1,1,1): (1,1,2) 2.085613E-06 (1,2,1) 2.632490E-06
(1,1,2): (1,1,1) -2.085613E-06 (1,1,3) 1.224832E-05 (1,2,2) 1.880276E-05
(1,1,3): (1,1,2) -1.224832E-05 (1,1,4) 5.217960E-05 (1,2,3) 1.238335E-04
(1,1,4): (1,1,3) -5.217960E-05 (1,1,5) 1.280286E-04 (1,2,4) 6.235788E-04
(1,1,5): (1,1,4) -1.280286E-04 (1,1,6) 3.876113E-05 (1,2,5) 1.998270E-03
(1,1,6): (1,1,5) -3.876113E-05 (1,1,7) -3.876118E-05 (1,2,6) 2.376767E-03
(1,1,7): (1,1,6) 3.876118E-05 (1,1,8) -1.280252E-04 (1,2,7) 1.998272E-03
(1,1,8): (1,1,7) 1.280252E-04 (1,1,9) -5.214372E-05 (1,2,8) 6.236044E-04
(1,1,9): (1,1,8) 5.214372E-05 (1,1,10) -1.195216E-05 (1,2,9) 1.240928E-04
(1,1,10): (1,1,9) 1.195216E-05 (1,2,10) 2.114733E-05
(1,2,1): (1,1,1) -2.632490E-06 (1,2,2) 1.825589E-05 (1,3,1) 1.972846E-05
(1,2,2): (1,1,2) -1.880276E-05 (1,2,1) -1.825589E-05 (1,2,3) 1.172791E-04 (1,3,2) 1.544823E-04
(1,2,3): (1,1,3) -1.238335E-04 (1,2,2) -1.172791E-04 (1,2,4) 5.519245E-04 (1,3,3) 1.116377E-03
(1,2,4): (1,1,4) -6.235788E-04 (1,2,3) -5.519245E-04 (1,2,5) 1.502713E-03 (1,3,4) 6.213217E-03
(1,2,5): (1,1,5) -1.998270E-03 (1,2,4) -1.502713E-03 (1,2,6) 4.172515E-04 (1,3,5) 2.199177E-02
(1,2,6): (1,1,6) -2.376767E-03 (1,2,5) -4.172515E-04 (1,2,7) -4.172493E-04 (1,3,6) 2.588967E-02
(1,2,7): (1,1,7) -1.998272E-03 (1,2,6) 4.172493E-04 (1,2,8) -1.502686E-03 (1,3,7) 2.199179E-02
(1,2,8): (1,1,8) -6.236044E-04 (1,2,7) 1.502686E-03 (1,2,9) -5.516550E-04 (1,3,8) 6.213386E-03
(1,2,9): (1,1,9) -1.240928E-04 (1,2,8) 5.516550E-04 (1,2,10) -1.148976E-04 (1,3,9) 1.118191E-03
(1,2,10): (1,1,10) -2.114733E-05 (1,2,9) 1.148976E-04 (1,3,10) 1.722130E-04
(1,3,1): (1,2,1) -1.972846E-05 (1,3,2) 1.530097E-04 (1,4,1) 1.185435E-04
(1,3,2): (1,2,2) -1.544823E-04 (1,3,1) -1.530097E-04 (1,3,3) 1.079173E-03 (1,4,2) 1.031256E-03
(1,3,3): (1,2,3) -1.116377E-03 (1,3,2) -1.079173E-03 (1,3,4) 5.648736E-03 (1,4,3) 8.307376E-03
(1,3,4): (1,2,4) -6.213217E-03 (1,3,3) -5.648736E-03 (1,3,5) 1.728052E-02 (1,4,4) 5.216175E-02
(1,3,5): (1,2,5) -2.199177E-02 (1,3,4) -1.728052E-02 (1,3,6) 4.314310E-03 (1,4,5) 0.209762
(1,3,6): (1,2,6) -2.588967E-02 (1,3,5) -4.314310E-03 (1,3,7) -4.314294E-03 (1,4,6) 0.243104
(1,3,7): (1,2,7) -2.199179E-02 (1,3,6) 4.314294E-03 (1,3,8) -1.728034E-02 (1,4,7) 0.209762
(1,3,8): (1,2,8) -6.213386E-03 (1,3,7) 1.728034E-02 (1,3,9) -5.646821E-03 (1,4,8) 5.216262E-02
(1,3,9): (1,2,9) -1.118191E-03 (1,3,8) 5.646821E-03 (1,3,10) -1.060875E-03 (1,4,9) 8.317448E-03
(1,3,10): (1,2,10) -1.722130E-04 (1,3,9) 1.060875E-03 (1,4,10) 1.138803E-03
(1,4,1): (1,3,1) -1.185435E-04 (1,4,2) 1.065722E-03 (1,5,1) 5.096684E-04
(1,4,2): (1,3,2) -1.031256E-03 (1,4,1) -1.065722E-03 (1,4,3) 8.355297E-03 (1,5,2) 5.010188E-03
(1,4,3): (1,3,3) -8.307376E-03 (1,4,2) -8.355297E-03 (1,4,4) 4.950195E-02 (1,5,3) 4.597025E-02
(1,4,4): (1,3,4) -5.216175E-02 (1,4,3) -4.950195E-02 (1,4,5) 0.174826 (1,5,4) 0.335837
(1,4,5): (1,3,5) -0.209762 (1,4,4) -0.174826 (1,4,6) 3.758864E-02 (1,5,5) 1.61424
(1,4,6): (1,3,6) -0.243104 (1,4,5) -3.758864E-02 (1,4,7) -3.758855E-02 (1,5,6) 1.82076
(1,4,7): (1,3,7) -0.209762 (1,4,6) 3.758855E-02 (1,4,8) -0.174825 (1,5,7) 1.61424
(1,4,8): (1,3,8) -5.216262E-02 (1,4,7) 0.174825 (1,4,9) -4.949082E-02 (1,5,8) 0.335841
(1,4,9): (1,3,9) -8.317448E-03 (1,4,8) 4.949082E-02 (1,4,10) -8.239515E-03 (1,5,9) 4.600976E-02
(1,4,10): (1,3,10) -1.138803E-03 (1,4,9) 8.239515E-03 (1,5,10) 5.477137E-03
(1,5,1): (1,4,1) -5.096684E-04 (1,5,2) 5.566267E-03 (1,6,1) 1.072293E-03
(1,5,2): (1,4,2) -5.010188E-03 (1,5,1) -5.566267E-03 (1,5,3) 4.931672E-02 (1,6,2) 1.238116E-02
(1,5,3): (1,4,3) -4.597025E-02 (1,5,2) -4.931672E-02 (1,5,4) 0.339379 (1,6,3) 0.135553
(1,5,4): (1,4,4) -0.335837 (1,5,3) -0.339379 (1,5,5) 1.45123 (1,6,4) 1.23438
(1,5,5): (1,4,5) -1.61424 (1,5,4) -1.45123 (1,5,6) 0.241032 (1,6,5) 8.30578
(1,5,6): (1,4,6) -1.82076 (1,5,5) -0.241032 (1,5,7) -0.241032 (1,6,6) 8.73946
(1,5,7): (1,4,7) -1.61424 (1,5,6) 0.241032 (1,5,8) -1.45123 (1,6,7) 8.30579
(1,5,8): (1,4,8) -0.335841 (1,5,7) 1.45123 (1,5,9) -0.339332 (1,6,8) 1.23438
(1,5,9): (1,4,9) -4.600976E-02 (1,5,8) 0.339332 (1,5,10) -4.877326E-02 (1,6,9) 0.135627
(1,5,10): (1,4,10) -5.477137E-03 (1,5,9) 4.877326E-02 (1,6,10) 1.337485E-02
(1,6,1): (1,5,1) -1.072293E-03 (1,6,2) 1.687565E-02 (1,7,1) -1.362092E-03
(1,6,2): (1,5,2) -1.238116E-02 (1,6,1) -1.687565E-02 (1,6,3) 0.172534 (1,7,2) -1.527891E-02
(1,6,3): (1,5,3) -0.135553 (1,6,2) -0.172534 (1,6,4) 1.44039 (1,7,3) -0.163842
(1,6,4): (1,5,4) -1.23438 (1,6,3) -1.44039 (1,6,5) 8.53606 (1,7,4) -1.47547
(1,6,5): (1,5,5) -8.30578 (1,6,4) -8.53606 (1,6,6) 0.648706 (1,7,5) -10.0362
(1,6,6): (1,5,6) -8.73946 (1,6,5) -0.648706 (1,6,7) -0.648705 (1,7,6) -16.5080
(1,6,7): (1,5,7) -8.30579 (1,6,6) 0.648705 (1,6,8) -8.53605 (1,7,7) -10.0362
(1,6,8): (1,5,8) -1.23438 (1,6,7) 8.53605 (1,6,9) -1.44027 (1,7,8) -1.47547
(1,6,9): (1,5,9) -0.135627 (1,6,8) 1.44027 (1,6,10) -0.171068 (1,7,9) -0.163938
(1,6,10): (1,5,10) -1.337485E-02 (1,6,9) 0.171068 (1,7,10) -1.653795E-02
(1,7,1): (1,6,1) 1.362092E-03 (1,7,2) 2.958606E-03 (1,8,1) -9.255531E-04
(1,7,2): (1,6,2) 1.527891E-02 (1,7,1) -2.958606E-03 (1,7,3) 2.395820E-02 (1,8,2) -9.855824E-03
(1,7,3): (1,6,3) 0.163842 (1,7,2) -2.395820E-02 (1,7,4) 0.129212 (1,8,3) -0.102155
(1,7,4): (1,6,4) 1.47547 (1,7,3) -0.129212 (1,7,5) 8.120022E-02 (1,8,4) -0.927619
(1,7,5): (1,6,5) 10.0362 (1,7,4) -8.120022E-02 (1,7,6) -5.25700 (1,8,5) -7.12825
(1,7,6): (1,6,6) 16.5080 (1,7,5) 5.25700 (1,7,7) 5.25700 (1,8,6) -45.2356
(1,7,7): (1,6,7) 10.0362 (1,7,6) -5.25700 (1,7,8) -8.119804E-02 (1,8,7) -7.12825
(1,7,8): (1,6,8) 1.47547 (1,7,7) 8.119804E-02 (1,7,9) -0.129186 (1,8,8) -0.927625
(1,7,9): (1,6,9) 0.163938 (1,7,8) 0.129186 (1,7,10) -2.365760E-02 (1,8,9) -0.102223
(1,7,10): (1,6,10) 1.653795E-02 (1,7,9) 2.365760E-02 (1,8,10) -1.070751E-02
(1,8,1): (1,7,1) 9.255531E-04 (1,8,2) -5.971406E-03 (1,9,1) 3.473002E-04
(1,8,2): (1,7,2) 9.855824E-03 (1,8,1) 5.971406E-03 (1,8,3) -6.831536E-02 (1,9,2) 4.521962E-03
(1,8,3): (1,7,3) 0.102155 (1,8,2) 6.831536E-02 (1,8,4) -0.694514 (1,9,3) 5.711033E-02
(1,8,4): (1,7,4) 0.927619 (1,8,3) 0.694514 (1,8,5) -6.05720 (1,9,4) 0.637667
(1,8,5): (1,7,5) 7.12825 (1,8,4) 6.05720 (1,8,6) -42.6081 (1,9,5) 5.99010
(1,8,6): (1,7,6) 45.2356 (1,8,5) 42.6081 (1,8,7) 42.6081 (1,9,6) 43.4367
(1,8,7): (1,7,7) 7.12825 (1,8,6) -42.6081 (1,8,8) 6.05720 (1,9,7) 5.99010
(1,8,8): (1,7,8) 0.927625 (1,8,7) -6.05720 (1,8,9) 0.694477 (1,9,8) 0.637668
(1,8,9): (1,7,9) 0.102223 (1,8,8) -0.694477 (1,8,10) 6.783234E-02 (1,9,9) 5.713196E-02
(1,8,10): (1,7,10) 1.070751E-02 (1,8,9) -6.783234E-02 (1,9,10) 4.846156E-03
(1,9,1): (1,8,1) -3.473002E-04 (1,9,2) -1.796685E-03 (1,10,1) 3.671170E-04
(1,9,2): (1,8,2) -4.521962E-03 (1,9,1) 1.796685E-03 (1,9,3) -1.572110E-02 (1,10,2) 4.730073E-03
(1,9,3): (1,8,3) -5.711033E-02 (1,9,2) 1.572110E-02 (1,9,4) -0.113629 (1,10,3) 6.300237E-02
(1,9,4): (1,8,4) -0.637667 (1,9,3) 0.113629 (1,9,5) -0.701324 (1,10,4) 0.795981
(1,9,5): (1,8,5) -5.99010 (1,9,4) 0.701324 (1,9,6) -5.40097 (1,10,5) 9.12433
(1,9,6): (1,8,6) -43.4367 (1,9,5) 5.40097 (1,9,7) 5.40097 (1,10,6) 14.9621
(1,9,7): (1,8,7) -5.99010 (1,9,6) -5.40097 (1,9,8) 0.701323 (1,10,7) 9.12433
(1,9,8): (1,8,8) -0.637668 (1,9,7) -0.701323 (1,9,9) 0.113612 (1,10,8) 0.795982
(1,9,9): (1,8,9) -5.713196E-02 (1,9,8) -0.113612 (1,9,10) 1.554095E-02 (1,10,9) 6.302648E-02
(1,9,10): (1,8,10) -4.846156E-03 (1,9,9) -1.554095E-02 (1,10,10) 5.071325E-03
(1,10,1): (1,9,1) -3.671170E-04 (1,10,2) 2.566209E-03 (1,11,1) -9.978451E-05
(1,10,2): (1,9,2) -4.730073E-03 (1,10,1) -2.566209E-03 (1,10,3) 4.254176E-02 (1,11,2) -2.011607E-03
(1,10,3): (1,9,3) -6.300237E-02 (1,10,2) -4.254176E-02 (1,10,4) 0.618193 (1,11,3) -3.611375E-02
(1,10,4): (1,9,4) -0.795981 (1,10,3) -0.618193 (1,10,5) 7.51720 (1,11,4) -0.565246
(1,10,5): (1,9,5) -9.12433 (1,10,4) -7.51720 (1,10,6) -2.202093E-02 (1,11,5) -7.44730
(1,10,6): (1,9,6) -14.9621 (1,10,5) 2.202093E-02 (1,10,7) 2.202093E-02 (1,11,6) -7.39690
(1,10,7): (1,9,7) -9.12433 (1,10,6) -2.202093E-02 (1,10,8) -7.51720 (1,11,7) -7.44730
(1,10,8): (1,9,8) -0.795982 (1,10,7) 7.51720 (1,10,9) -0.618187 (1,11,8) -0.565246
(1,10,9): (1,9,9) -6.302648E-02 (1,10,8) 0.618187 (1,10,10) -4.240469E-02 (1,11,9) -3.611733E-02
(1,10,10): (1,9,10) -5.071325E-03 (1,10,9) 4.240469E-02 (1,11,10) -2.107773E-03
(1,11,1): (1,10,1) 9.978451E-05 (1,11,2) 6.543762E-04 (1,12,1) -4.145497E-05
(1,11,2): (1,10,2) 2.011607E-03 (1,11,1) -6.543762E-04 (1,11,3) 8.437428E-03 (1,12,2) -6.004139E-04
(1,11,3): (1,10,3) 3.611375E-02 (1,11,2) -8.437428E-03 (1,11,4) 8.878487E-02 (1,12,3) -8.010514E-03
(1,11,4): (1,10,4) 0.565246 (1,11,3) -8.878487E-02 (1,11,5) 0.631018 (1,12,4) -8.815372E-02
(1,11,5): (1,10,5) 7.44730 (1,11,4) -0.631018 (1,11,6) 2.524624E-02 (1,12,5) -0.674237
(1,11,6): (1,10,6) 7.39690 (1,11,5) -2.524624E-02 (1,11,7) -2.524624E-02 (1,12,6) -0.696581
(1,11,7): (1,10,7) 7.44730 (1,11,6) 2.524624E-02 (1,11,8) -0.631018 (1,12,7) -0.674237
(1,11,8): (1,10,8) 0.565246 (1,11,7) 0.631018 (1,11,9) -8.878219E-02 (1,12,8) -8.815384E-02
(1,11,9): (1,10,9) 3.611733E-02 (1,11,8) 8.878219E-02 (1,11,10) -8.392994E-03 (1,12,9) -8.012771E-03
(1,11,10): (1,10,10) 2.107773E-03 (1,11,9) 8.392994E-03 (1,12,10) -6.394945E-04
(1,12,1): (1,11,1) 4.145497E-05 (1,12,2) 9.541693E-05 (1,13,1) -7.653140E-06
(1,12,2): (1,11,2) 6.004139E-04 (1,12,1) -9.541693E-05 (1,12,3) 1.027296E-03 (1,13,2) -9.245877E-05
(1,12,3): (1,11,3) 8.010514E-03 (1,12,2) -1.027296E-03 (1,12,4) 8.641158E-03 (1,13,3) -1.020935E-03
(1,12,4): (1,11,4) 8.815372E-02 (1,12,3) -8.641158E-03 (1,12,5) 4.518378E-02 (1,13,4) -8.963696E-03
(1,12,5): (1,11,5) 0.674237 (1,12,4) -4.518378E-02 (1,12,6) 3.049118E-03 (1,13,5) -5.121338E-02
(1,12,6): (1,11,6) 0.696581 (1,12,5) -3.049118E-03 (1,12,7) -3.049116E-03 (1,13,6) -5.401409E-02
(1,12,7): (1,11,7) 0.674237 (1,12,6) 3.049116E-03 (1,12,8) -4.518374E-02 (1,13,7) -5.121338E-02
(1,12,8): (1,11,8) 8.815384E-02 (1,12,7) 4.518374E-02 (1,12,9) -8.640623E-03 (1,13,8) -8.963726E-03
(1,12,9): (1,11,9) 8.012771E-03 (1,12,8) 8.640623E-03 (1,12,10) -1.019689E-03 (1,13,9) -1.021424E-03
(1,12,10): (1,11,10) 6.394945E-04 (1,12,9) 1.019689E-03 (1,13,10) -9.959152E-05
(1,13,1): (1,12,1) 7.653140E-06 (1,13,2) 1.061130E-05 (1,14,1) -1.012770E-06
(1,13,2): (1,12,2) 9.245877E-05 (1,13,1) -1.061130E-05 (1,13,3) 9.881985E-05 (1,14,2) -1.062795E-05
(1,13,3): (1,12,3) 1.020935E-03 (1,13,2) -9.881985E-05 (1,13,4) 6.984228E-04 (1,14,3) -1.012311E-04
(1,13,4): (1,12,4) 8.963696E-03 (1,13,3) -6.984228E-04 (1,13,5) 2.936640E-03 (1,14,4) -7.493296E-04
(1,13,5): (1,12,5) 5.121338E-02 (1,13,4) -2.936640E-03 (1,13,6) 2.498341E-04 (1,14,5) -3.507561E-03
(1,13,6): (1,12,6) 5.401409E-02 (1,13,5) -2.498341E-04 (1,13,7) -2.498332E-04 (1,14,6) -3.740445E-03
(1,13,7): (1,12,7) 5.121338E-02 (1,13,6) 2.498332E-04 (1,13,8) -2.936634E-03 (1,14,7) -3.507561E-03
(1,13,8): (1,12,8) 8.963726E-03 (1,13,7) 2.936634E-03 (1,13,9) -6.983461E-04 (1,14,8) -7.493345E-04
(1,13,9): (1,12,9) 1.021424E-03 (1,13,8) 6.983461E-04 (1,13,10) -9.785657E-05 (1,14,9) -1.013036E-04
(1,13,10): (1,12,10) 9.959152E-05 (1,13,9) 9.785657E-05 (1,14,10) -1.156267E-05
(1,14,1): (1,13,1) 1.012770E-06 (1,14,2) 9.961207E-07 (1,15,1) -1.089335E-07
(1,14,2): (1,13,2) 1.062795E-05 (1,14,1) -9.961207E-07 (1,14,3) 8.216664E-06 (1,15,2) -1.016851E-06
(1,14,3): (1,13,3) 1.012311E-04 (1,14,2) -8.216664E-06 (1,14,4) 5.032466E-05 (1,15,3) -8.575435E-06
(1,14,4): (1,13,4) 7.493296E-04 (1,14,3) -5.032466E-05 (1,14,5) 1.784244E-04 (1,15,4) -5.534958E-05
(1,14,5): (1,13,5) 3.507561E-03 (1,14,4) -1.784244E-04 (1,14,6) 1.695765E-05 (1,15,5) -2.229105E-04
(1,14,6): (1,13,6) 3.740445E-03 (1,14,5) -1.695765E-05 (1,14,7) -1.695698E-05 (1,15,6) -2.388034E-04
(1,14,7): (1,13,7) 3.507561E-03 (1,14,6) 1.695698E-05 (1,14,8) -1.784232E-04 (1,15,7) -2.229105E-04
(1,14,8): (1,13,8) 7.493345E-04 (1,14,7) 1.784232E-04 (1,14,9) -5.031545E-05 (1,15,8) -5.535015E-05
(1,14,9): (1,13,9) 1.013036E-04 (1,14,8) 5.031545E-05 (1,14,10) -8.115679E-06 (1,15,9) -8.583913E-06
(1,14,10): (1,13,10) 1.156267E-05 (1,14,9) 8.115679E-06 (1,15,10) -1.116460E-06
(1,15,1): (1,14,1) 1.089335E-07 (1,15,2) 8.820360E-08
(1,15,2): (1,14,2) 1.016851E-06 (1,15,1) -8.820360E-08 (1,15,3) 6.580798E-07
(1,15,3): (1,14,3) 8.575435E-06 (1,15,2) -6.580798E-07 (1,15,4) 3.550509E-06
(1,15,4): (1,14,4) 5.534958E-05 (1,15,3) -3.550509E-06 (1,15,5) 1.086360E-05
(1,15,5): (1,14,5) 2.229105E-04 (1,15,4) -1.086360E-05 (1,15,6) 1.064826E-06
(1,15,6): (1,14,6) 2.388034E-04 (1,15,5) -1.064826E-06 (1,15,7) -1.064151E-06
(1,15,7): (1,14,7) 2.229105E-04 (1,15,6) 1.064151E-06 (1,15,8) -1.086294E-05
(1,15,8): (1,14,8) 5.535015E-05 (1,15,7) 1.086294E-05 (1,15,9) -3.549212E-06
(1,15,9): (1,14,9) 8.583913E-06 (1,15,8) 3.549212E-06 (1,15,10) -6.482257E-07
(1,15,10): (1,14,10) 1.116460E-06 (1,15,9) 6.482257E-07

 WEL PACKAGE (WEL-1) FLOW RATES   PERIOD      2   STEP        7
 ----------------------------------------------------------------------------------------
   NUMBER   CELLID                    RATE       NAME                                    
 ----------------------------------------------------------------------------------------
     1      (1,8,6)              -270.00000      WEL                                     
 ----------------------------------------------------------------------------------------




 DRN PACKAGE (DRN-0) FLOW RATES   PERIOD      2   STEP        7
 ----------------------------------------------------------------------------------------
   NUMBER   CELLID                    RATE       NAME                                    
 ----------------------------------------------------------------------------------------
     1      (1,1,1)               0.0000000      SURF                                    
     2      (1,1,2)               0.0000000      SURF                                    
     3      (1,1,3)               0.0000000      SURF                                    
     4      (1,1,4)               0.0000000      SURF                                    
     5      (1,1,5)               0.0000000      SURF                                    
     6      (1,1,6)               0.0000000      SURF                                    
     7      (1,1,7)               0.0000000      SURF                                    
     8      (1,1,8)               0.0000000      SURF                                    
     9      (1,1,9)               0.0000000      SURF                                    
     10     (1,1,10)              0.0000000      SURF                                    
     11     (1,2,1)               0.0000000      SURF                                    
     12     (1,2,2)               0.0000000      SURF                                    
     13     (1,2,3)               0.0000000      SURF                                    
     14     (1,2,4)               0.0000000      SURF                                    
     15     (1,2,5)               0.0000000      SURF                                    
     16     (1,2,6)               0.0000000      SURF                                    
     17     (1,2,7)               0.0000000      SURF                                    
     18     (1,2,8)               0.0000000      SURF                                    
     19     (1,2,9)               0.0000000      SURF                                    
     20     (1,2,10)              0.0000000      SURF                                    
     21     (1,3,1)               0.0000000      SURF                                    
     22     (1,3,2)               0.0000000      SURF                                    
     23     (1,3,3)               0.0000000      SURF                                    
     24     (1,3,4)               0.0000000      SURF                                    
     25     (1,3,5)               0.0000000      SURF                                    
     26     (1,3,6)               0.0000000      SURF                                    
     27     (1,3,7)               0.0000000      SURF                                    
     28     (1,3,8)               0.0000000      SURF                                    
     29     (1,3,9)               0.0000000      SURF                                    
     30     (1,3,10)              0.0000000      SURF                                    
     31     (1,4,1)               0.0000000      SURF                                    
     32     (1,4,2)               0.0000000      SURF                                    
     33     (1,4,3)               0.0000000      SURF                                    
     34     (1,4,4)               0.0000000      SURF                                    
     35     (1,4,5)               0.0000000      SURF                                    
     36     (1,4,6)               0.0000000      SURF                                    
     37     (1,4,7)               0.0000000      SURF                                    
     38     (1,4,8)               0.0000000      SURF                                    
     39     (1,4,9)               0.0000000      SURF                                    
     40     (1,4,10)              0.0000000      SURF                                    
     41     (1,5,1)               0.0000000      SURF                                    
     42     (1,5,2)               0.0000000      SURF                                    
     43     (1,5,3)               0.0000000      SURF                                    
     44     (1,5,4)               0.0000000      SURF                                    
     45     (1,5,5)               0.0000000      SURF                                    
     46     (1,5,6)               0.0000000      SURF                                    
     47     (1,5,7)               0.0000000      SURF                                    
     48     (1,5,8)               0.0000000      SURF                                    
     49     (1,5,9)               0.0000000      SURF                                    
     50     (1,5,10)              0.0000000      SURF                                    
     51     (1,6,1)               0.0000000      SURF                                    
     52     (1,6,2)               0.0000000      SURF                                    
     53     (1,6,3)               0.0000000      SURF                                    
     54     (1,6,4)               0.0000000      SURF                                    
     55     (1,6,5)               0.0000000      SURF                                    
     56     (1,6,6)              -4.00235876E-07 SURF                                    
     57     (1,6,7)               0.0000000      SURF                                    
     58     (1,6,8)               0.0000000      SURF                                    
     59     (1,6,9)               0.0000000      SURF                                    
     60     (1,6,10)              0.0000000      SURF                                    
     61     (1,7,1)               0.0000000      SURF                                    
     62     (1,7,2)               0.0000000      SURF                                    
     63     (1,7,3)               0.0000000      SURF                                    
     64     (1,7,4)               0.0000000      SURF                                    
     65     (1,7,5)               0.0000000      SURF                                    
     66     (1,7,6)               0.0000000      SURF                                    
     67     (1,7,7)               0.0000000      SURF                                    
     68     (1,7,8)               0.0000000      SURF                                    
     69     (1,7,9)               0.0000000      SURF                                    
     70     (1,7,10)              0.0000000      SURF                                    
     71     (1,8,1)               0.0000000      SURF                                    
     72     (1,8,2)               0.0000000      SURF                                    
     73     (1,8,3)               0.0000000      SURF                                    
     74     (1,8,4)               0.0000000      SURF                                    
     75     (1,8,5)               0.0000000      SURF                                    
     76     (1,8,6)               0.0000000      SURF                                    
     77     (1,8,7)               0.0000000      SURF                                    
     78     (1,8,8)               0.0000000      SURF                                    
     79     (1,8,9)               0.0000000      SURF                                    
     80     (1,8,10)              0.0000000      SURF                                    
     81     (1,9,1)               0.0000000      SURF                                    
     82     (1,9,2)               0.0000000      SURF                                    
     83     (1,9,3)               0.0000000      SURF                                    
     84     (1,9,4)               0.0000000      SURF                                    
     85     (1,9,5)               0.0000000      SURF                                    
     86     (1,9,6)               0.0000000      SURF                                    
     87     (1,9,7)               0.0000000      SURF                                    
     88     (1,9,8)               0.0000000      SURF                                    
     89     (1,9,9)               0.0000000      SURF                                    
     90     (1,9,10)              0.0000000      SURF                                    
     91     (1,10,1)              0.0000000      SURF                                    
     92     (1,10,2)              0.0000000      SURF                                    
     93     (1,10,3)              0.0000000      SURF                                    
     94     (1,10,4)              0.0000000      SURF                                    
     95     (1,10,5)              0.0000000      SURF                                    
     96     (1,10,6)              0.0000000      SURF                                    
     97     (1,10,7)              0.0000000      SURF                                    
     98     (1,10,8)              0.0000000      SURF                                    
     99     (1,10,9)              0.0000000      SURF                                    
    100     (1,10,10)             0.0000000      SURF                                    
    101     (1,11,1)              0.0000000      SURF                                    
    102     (1,11,2)              0.0000000      SURF                                    
    103     (1,11,3)              0.0000000      SURF                                    
    104     (1,11,4)              0.0000000      SURF                                    
    105     (1,11,5)              0.0000000      SURF                                    
    106     (1,11,6)              0.0000000      SURF                                    
    107     (1,11,7)              0.0000000      SURF                                    
    108     (1,11,8)              0.0000000      SURF                                    
    109     (1,11,9)              0.0000000      SURF                                    
    110     (1,11,10)             0.0000000      SURF                                    
    111     (1,12,1)              0.0000000      SURF                                    
    112     (1,12,2)              0.0000000      SURF                                    
    113     (1,12,3)              0.0000000      SURF                                    
    114     (1,12,4)              0.0000000      SURF                                    
    115     (1,12,5)              0.0000000      SURF                                    
    116     (1,12,6)              0.0000000      SURF                                    
    117     (1,12,7)              0.0000000      SURF                                    
    118     (1,12,8)              0.0000000      SURF                                    
    119     (1,12,9)              0.0000000      SURF                                    
    120     (1,12,10)             0.0000000      SURF                                    
    121     (1,13,1)              0.0000000      SURF                                    
    122     (1,13,2)              0.0000000      SURF                                    
    123     (1,13,3)              0.0000000      SURF                                    
    124     (1,13,4)              0.0000000      SURF                                    
    125     (1,13,5)              0.0000000      SURF                                    
    126     (1,13,6)              0.0000000      SURF                                    
    127     (1,13,7)              0.0000000      SURF                                    
    128     (1,13,8)              0.0000000      SURF                                    
    129     (1,13,9)              0.0000000      SURF                                    
    130     (1,13,10)             0.0000000      SURF                                    
    131     (1,14,1)              0.0000000      SURF                                    
    132     (1,14,2)              0.0000000      SURF                                    
    133     (1,14,3)              0.0000000      SURF                                    
    134     (1,14,4)              0.0000000      SURF                                    
    135     (1,14,5)              0.0000000      SURF                                    
    136     (1,14,6)              0.0000000      SURF                                    
    137     (1,14,7)              0.0000000      SURF                                    
    138     (1,14,8)              0.0000000      SURF                                    
    139     (1,14,9)              0.0000000      SURF                                    
    140     (1,14,10)             0.0000000      SURF                                    
    141     (1,15,1)              0.0000000      SURF                                    
    142     (1,15,2)              0.0000000      SURF                                    
    143     (1,15,3)              0.0000000      SURF                                    
    144     (1,15,4)              0.0000000      SURF                                    
    145     (1,15,5)              0.0000000      SURF                                    
    146     (1,15,6)              0.0000000      SURF                                    
    147     (1,15,7)              0.0000000      SURF                                    
    148     (1,15,8)              0.0000000      SURF                                    
    149     (1,15,9)              0.0000000      SURF                                    
    150     (1,15,10)             0.0000000      SURF                                    
 ----------------------------------------------------------------------------------------




 API PACKAGE (MAR) FLOW RATES   PERIOD      2   STEP        7
 -----------------------------------------------
   NUMBER   CELLID                    RATE      
 -----------------------------------------------
     1      (1,6,5)               26.544858     
     2      (1,6,6)               26.544858     
     3      (1,6,7)               26.544858     
     4      (1,10,5)              63.455142     
     5      (1,10,6)              63.455142     
     6      (1,10,7)              63.455142     
 -----------------------------------------------



1
  HEAD IN LAYER   1 AT END OF TIME STEP   7 IN STRESS PERIOD    2
  ---------------------------------------------------------------------------

            1           2           3           4           5           6           7           8           9          10
 ........................................................................................................................
   1   3.8306E-08  2.4687E-07  1.4717E-06  6.6897E-06  1.9492E-05  2.3369E-05  1.9492E-05  6.6900E-06  1.4756E-06  2.8042E-07
   2   3.0155E-07  2.1271E-06  1.3855E-05  6.9047E-05  2.1931E-04  2.6104E-04  2.1932E-04  6.9050E-05  1.3885E-05  2.3951E-06
   3   2.2744E-06  1.7575E-05  1.2549E-04  6.9033E-04  2.4180E-03  2.8493E-03  2.4180E-03  6.9035E-04  1.2570E-04  1.9616E-05
   4   1.4129E-05  1.2070E-04  9.5615E-04  5.9034E-03  2.3345E-02  2.7094E-02  2.3345E-02  5.9035E-03  9.5737E-04  1.3350E-04
   5   6.5095E-05  6.2169E-04  5.5506E-03  3.9355E-02  0.1819      0.2055      0.1819      3.9356E-02  5.5558E-03  6.8117E-04
   6   1.7232E-04  1.8596E-03  1.9080E-02  0.1608      0.9410       1.000      0.9410      0.1608      1.9093E-02  2.0184E-03
   7   3.6116E-05  3.3197E-04  2.7271E-03  1.5628E-02  2.3729E-02 -0.5007      2.3729E-02  1.5628E-02  2.7300E-03  3.6493E-04
   8  -5.6439E-05 -6.5358E-04 -7.4856E-03 -7.6989E-02 -0.6874      -5.263     -0.6874     -7.6989E-02 -7.4895E-03 -7.0579E-04
   9  -2.1709E-05 -2.0138E-04 -1.7735E-03 -1.3138E-02 -8.3363E-02 -0.6280     -8.3363E-02 -1.3139E-02 -1.7753E-03 -2.2116E-04
  10   1.5003E-05  2.7162E-04  4.5239E-03  6.5938E-02  0.7643      0.7622      0.7643      6.5938E-02  4.5245E-03  2.8596E-04
  11   5.0242E-06  7.0461E-05  9.1413E-04  9.7839E-03  7.2432E-02  7.4938E-02  7.2432E-02  9.7839E-03  9.1441E-04  7.5187E-05
  12   8.7866E-07  1.0420E-05  1.1315E-04  9.7718E-04  5.4931E-03  5.7978E-03  5.4931E-03  9.7718E-04  1.1321E-04  1.1238E-05
  13   1.1335E-07  1.1745E-06  1.1056E-05  8.0898E-05  3.7455E-04  3.9953E-04  3.7455E-04  8.0899E-05  1.1065E-05  1.2792E-06
  14   1.2068E-08  1.1168E-07  9.3335E-07  5.9658E-06  2.3808E-05  2.5504E-05  2.3808E-05  5.9660E-06  9.3446E-07  1.2289E-07
  15   1.1751E-09  9.9954E-09  7.5803E-08  4.3085E-07  1.5172E-06  1.6237E-06  1.5173E-06  4.3099E-07  7.6066E-08  1.1244E-08

 HEAD WILL BE SAVED ON UNIT 1100 AT END OF TIME STEP    7, STRESS PERIOD    2


  VOLUME BUDGET FOR ENTIRE MODEL AT END OF TIME STEP    7, STRESS PERIOD   2
  ---------------------------------------------------------------------------------------------------

     CUMULATIVE VOLUME      L**3       RATES FOR THIS TIME STEP      L**3/T          PACKAGE NAME    
     ------------------                 ------------------------                     ----------------

           IN:                                      IN:
           ---                                      ---
              STO-SS =           6.7647                STO-SS =       7.1681E-02     STORAGE                          
              STO-SY =       16455.6687                STO-SY =         196.4903     STORAGE                          
                 WEL =           0.0000                   WEL =           0.0000     WEL-1                            
                 DRN =           0.0000                   DRN =           0.0000     DRN-0                            
                 API =       16200.0000                   API =         270.0000     MAR                              
                 CHD =       2.0279E-08                   CHD =           0.0000     CHD_0                            

            TOTAL IN =       32662.4334              TOTAL IN =         466.5620

          OUT:                                     OUT:
          ----                                     ----
              STO-SS =           7.1159                STO-SS =           0.1026     STORAGE                          
              STO-SY =       13755.3176                STO-SY =         196.4595     STORAGE                          
                 WEL =       18900.0000                   WEL =         270.0000     WEL-1                            
                 DRN =       1.5656E-05                   DRN =       4.0024E-07     DRN-0                            
                 API =           0.0000                   API =           0.0000     MAR                              
                 CHD =       2.0705E-08                   CHD =           0.0000     CHD_0                            

           TOTAL OUT =       32662.4334             TOTAL OUT =         466.5620

            IN - OUT =       4.7829E-08              IN - OUT =       1.5111E-09

 PERCENT DISCREPANCY =           0.00     PERCENT DISCREPANCY =           0.00




         TIME SUMMARY AT END OF TIME STEP    7 IN STRESS PERIOD    2
                    SECONDS     MINUTES      HOURS       DAYS        YEARS
                    -----------------------------------------------------------
   TIME STEP LENGTH 8.64000E+05  14400.      240.00      10.000     2.73785E-02
 STRESS PERIOD TIME 6.04800E+06 1.00800E+05  1680.0      70.000     0.19165    
         TOTAL TIME 6.13440E+06 1.02240E+05  1704.0      71.000     0.19439    


end timestep


start timestep kper="2" kstp="8" mode="normal"

 UBDSV1 SAVING           STO-SS ON UNIT   1099 AT TIME STEP      8, STRESS PERIOD      2
 UBDSV1 SAVING           STO-SY ON UNIT   1099 AT TIME STEP      8, STRESS PERIOD      2
 UBDSV1 SAVING     FLOW-JA-FACE ON UNIT   1099 AT TIME STEP      8, STRESS PERIOD      2
 UBDSV06 SAVING       DATA-SPDIS IN MODEL GWF              PACKAGE NPF             CONNECTED TO MODEL GWF              PACKAGE NPF              ON UNIT   1099 AT TIME STEP      8, STRESS PERIOD      2
 UBDSV06 SAVING              WEL IN MODEL GWF              PACKAGE GWF             CONNECTED TO MODEL GWF              PACKAGE WEL-1            ON UNIT   1099 AT TIME STEP      8, STRESS PERIOD      2
 UBDSV06 SAVING              DRN IN MODEL GWF              PACKAGE GWF             CONNECTED TO MODEL GWF              PACKAGE DRN-0            ON UNIT   1099 AT TIME STEP      8, STRESS PERIOD      2
 UBDSV06 SAVING              API IN MODEL GWF              PACKAGE GWF             CONNECTED TO MODEL GWF              PACKAGE MAR              ON UNIT   1099 AT TIME STEP      8, STRESS PERIOD      2
 UBDSV06 SAVING              CHD IN MODEL GWF              PACKAGE GWF             CONNECTED TO MODEL GWF              PACKAGE CHD_0            ON UNIT   1099 AT TIME STEP      8, STRESS PERIOD      2

    CALCULATED INTERCELL FLOW FOR PERIOD 2 STEP 8
(1,1,1): (1,1,2) 4.436474E-06 (1,2,1) 5.602797E-06
(1,1,2): (1,1,1) -4.436474E-06 (1,1,3) 2.437409E-05 (1,2,2) 3.714240E-05
(1,1,3): (1,1,2) -2.437409E-05 (1,1,4) 9.654371E-05 (1,2,3) 2.275473E-04
(1,1,4): (1,1,3) -9.654371E-05 (1,1,5) 2.202409E-04 (1,2,4) 1.063744E-03
(1,1,5): (1,1,4) -2.202409E-04 (1,1,6) 7.018962E-05 (1,2,5) 3.182650E-03
(1,1,6): (1,1,5) -7.018962E-05 (1,1,7) -7.018892E-05 (1,2,6) 3.801858E-03
(1,1,7): (1,1,6) 7.018892E-05 (1,1,8) -2.202312E-04 (1,2,7) 3.182656E-03
(1,1,8): (1,1,7) 2.202312E-04 (1,1,9) -9.645632E-05 (1,2,8) 1.063806E-03
(1,1,9): (1,1,8) 9.645632E-05 (1,1,10) -2.370095E-05 (1,2,9) 2.281314E-04
(1,1,10): (1,1,9) 2.370095E-05 (1,2,10) 4.209240E-05
(1,2,1): (1,1,1) -5.602797E-06 (1,2,2) 3.597608E-05 (1,3,1) 3.910187E-05
(1,2,2): (1,1,2) -3.714240E-05 (1,2,1) -3.597608E-05 (1,2,3) 2.147790E-04 (1,3,2) 2.823956E-04
(1,2,3): (1,1,3) -2.275473E-04 (1,2,2) -2.147790E-04 (1,2,4) 9.327395E-04 (1,3,3) 1.884608E-03
(1,2,4): (1,1,4) -1.063744E-03 (1,2,3) -9.327395E-04 (1,2,5) 2.339129E-03 (1,3,4) 9.652344E-03
(1,2,5): (1,1,5) -3.182650E-03 (1,2,4) -2.339129E-03 (1,2,6) 6.893780E-04 (1,3,5) 3.156309E-02
(1,2,6): (1,1,6) -3.801858E-03 (1,2,5) -6.893780E-04 (1,2,7) -6.893714E-04 (1,3,6) 3.735619E-02
(1,2,7): (1,1,7) -3.182656E-03 (1,2,6) 6.893714E-04 (1,2,8) -2.339063E-03 (1,3,7) 3.156312E-02
(1,2,8): (1,1,8) -1.063806E-03 (1,2,7) 2.339063E-03 (1,2,9) -9.321298E-04 (1,3,8) 9.652724E-03
(1,2,9): (1,1,9) -2.281314E-04 (1,2,8) 9.321298E-04 (1,2,10) -2.097400E-04 (1,3,9) 1.888435E-03
(1,2,10): (1,1,10) -4.209240E-05 (1,2,9) 2.097400E-04 (1,3,10) 3.172564E-04
(1,3,1): (1,2,1) -3.910187E-05 (1,3,2) 2.792698E-04 (1,4,1) 2.169689E-04
(1,3,2): (1,2,2) -2.823956E-04 (1,3,1) -2.792698E-04 (1,3,3) 1.816991E-03 (1,4,2) 1.728265E-03
(1,3,3): (1,2,3) -1.884608E-03 (1,3,2) -1.816991E-03 (1,3,4) 8.700402E-03 (1,4,3) 1.274802E-02
(1,3,4): (1,2,4) -9.652344E-03 (1,3,3) -8.700402E-03 (1,3,5) 2.424827E-02 (1,4,4) 7.290408E-02
(1,3,5): (1,2,5) -3.156309E-02 (1,3,4) -2.424827E-02 (1,3,6) 6.480689E-03 (1,4,5) 0.267468
(1,3,6): (1,2,6) -3.735619E-02 (1,3,5) -6.480689E-03 (1,3,7) -6.480648E-03 (1,4,6) 0.311775
(1,3,7): (1,2,7) -3.156312E-02 (1,3,6) 6.480648E-03 (1,3,8) -2.424786E-02 (1,4,7) 0.267469
(1,3,8): (1,2,8) -9.652724E-03 (1,3,7) 2.424786E-02 (1,3,9) -8.696345E-03 (1,4,8) 7.290590E-02
(1,3,9): (1,2,9) -1.888435E-03 (1,3,8) 8.696345E-03 (1,3,10) -1.780917E-03 (1,4,9) 1.276776E-02
(1,3,10): (1,2,10) -3.172564E-04 (1,3,9) 1.780917E-03 (1,4,10) 1.923547E-03
(1,4,1): (1,3,1) -2.169689E-04 (1,4,2) 1.790567E-03 (1,5,1) 8.530249E-04
(1,4,2): (1,3,2) -1.728265E-03 (1,4,1) -1.790567E-03 (1,4,3) 1.283675E-02 (1,5,2) 7.612377E-03
(1,4,3): (1,3,3) -1.274802E-02 (1,4,2) -1.283675E-02 (1,4,4) 6.885403E-02 (1,5,3) 6.331280E-02
(1,4,4): (1,3,4) -7.290408E-02 (1,4,3) -6.885403E-02 (1,4,5) 0.218718 (1,5,4) 0.416290
(1,4,5): (1,3,5) -0.267468 (1,4,4) -0.218718 (1,4,6) 5.067300E-02 (1,5,5) 1.80204
(1,4,6): (1,3,6) -0.311775 (1,4,5) -5.067300E-02 (1,4,7) -5.067281E-02 (1,5,6) 2.03994
(1,4,7): (1,3,7) -0.267469 (1,4,6) 5.067281E-02 (1,4,8) -0.218716 (1,5,7) 1.80204
(1,4,8): (1,3,8) -7.290590E-02 (1,4,7) 0.218716 (1,4,9) -6.883205E-02 (1,5,8) 0.416296
(1,4,9): (1,3,9) -1.276776E-02 (1,4,8) 6.883205E-02 (1,4,10) -1.262511E-02 (1,5,9) 6.338416E-02
(1,4,10): (1,3,10) -1.923547E-03 (1,4,9) 1.262511E-02 (1,5,10) 8.387816E-03
(1,5,1): (1,4,1) -8.530249E-04 (1,5,2) 8.549982E-03 (1,6,1) 1.600110E-03
(1,5,2): (1,4,2) -7.612377E-03 (1,5,1) -8.549982E-03 (1,5,3) 6.854009E-02 (1,6,2) 1.661390E-02
(1,5,3): (1,4,3) -6.331280E-02 (1,5,2) -6.854009E-02 (1,5,4) 0.421850 (1,6,3) 0.163130
(1,5,4): (1,4,4) -0.416290 (1,5,3) -0.421850 (1,5,5) 1.60182 (1,6,4) 1.32450
(1,5,5): (1,4,5) -1.80204 (1,5,4) -1.60182 (1,5,6) 0.284668 (1,6,5) 8.09019
(1,5,6): (1,4,6) -2.03994 (1,5,5) -0.284668 (1,5,7) -0.284667 (1,6,6) 8.42003
(1,5,7): (1,4,7) -1.80204 (1,5,6) 0.284667 (1,5,8) -1.60181 (1,6,7) 8.09019
(1,5,8): (1,4,8) -0.416296 (1,5,7) 1.60181 (1,5,9) -0.421763 (1,6,8) 1.32451
(1,5,9): (1,4,9) -6.338416E-02 (1,5,8) 0.421763 (1,5,10) -6.762378E-02 (1,6,9) 0.163250
(1,5,10): (1,4,10) -8.387816E-03 (1,5,9) 6.762378E-02 (1,6,10) 1.808568E-02
(1,6,1): (1,5,1) -1.600110E-03 (1,6,2) 2.356482E-02 (1,7,1) -2.106523E-03
(1,6,2): (1,5,2) -1.661390E-02 (1,6,1) -2.356482E-02 (1,6,3) 0.215132 (1,7,2) -2.130617E-02
(1,6,3): (1,5,3) -0.163130 (1,6,2) -0.215132 (1,6,4) 1.58615 (1,7,3) -0.205615
(1,6,4): (1,5,4) -1.32450 (1,6,3) -1.58615 (1,6,5) 8.38384 (1,7,4) -1.65892
(1,6,5): (1,5,5) -8.09019 (1,6,4) -8.38384 (1,6,6) 0.595768 (1,7,5) -10.2933
(1,6,6): (1,5,6) -8.42003 (1,6,5) -0.595768 (1,6,7) -0.595767 (1,7,6) -17.5230
(1,6,7): (1,5,7) -8.09019 (1,6,6) 0.595767 (1,6,8) -8.38383 (1,7,7) -10.2933
(1,6,8): (1,5,8) -1.32451 (1,6,7) 8.38383 (1,6,9) -1.58595 (1,7,8) -1.65893
(1,6,9): (1,5,9) -0.163250 (1,6,8) 1.58595 (1,6,10) -0.212860 (1,7,9) -0.205777
(1,6,10): (1,5,10) -1.808568E-02 (1,6,9) 0.212860 (1,7,10) -2.323874E-02
(1,7,1): (1,6,1) 2.106523E-03 (1,7,2) 4.364742E-03 (1,8,1) -1.508484E-03
(1,7,2): (1,6,2) 2.130617E-02 (1,7,1) -4.364742E-03 (1,7,3) 3.080580E-02 (1,8,2) -1.465001E-02
(1,7,3): (1,6,3) 0.205615 (1,7,2) -3.080580E-02 (1,7,4) 0.133866 (1,8,3) -0.138647
(1,7,4): (1,6,4) 1.65892 (1,7,3) -0.133866 (1,7,5) -0.115009 (1,8,4) -1.14740
(1,7,5): (1,6,5) 10.2933 (1,7,4) 0.115009 (1,7,6) -5.98784 (1,8,5) -8.07619
(1,7,6): (1,6,6) 17.5230 (1,7,5) 5.98784 (1,7,7) 5.98784 (1,8,6) -47.9618
(1,7,7): (1,6,7) 10.2933 (1,7,6) -5.98784 (1,7,8) 0.115014 (1,8,7) -8.07619
(1,7,8): (1,6,8) 1.65893 (1,7,7) -0.115014 (1,7,9) -0.133817 (1,8,8) -1.14741
(1,7,9): (1,6,9) 0.205777 (1,7,8) 0.133817 (1,7,10) -3.030861E-02 (1,8,9) -0.138767
(1,7,10): (1,6,10) 2.323874E-02 (1,7,9) 3.030861E-02 (1,8,10) -1.602813E-02
(1,8,1): (1,7,1) 1.508484E-03 (1,8,2) -8.776201E-03 (1,9,1) 5.661540E-04
(1,8,2): (1,7,2) 1.465001E-02 (1,8,1) 8.776201E-03 (1,8,3) -9.314462E-02 (1,9,2) 6.891986E-03
(1,8,3): (1,7,3) 0.138647 (1,8,2) 9.314462E-02 (1,8,4) -0.872320 (1,9,3) 8.077761E-02
(1,8,4): (1,7,4) 1.14740 (1,8,3) 0.872320 (1,8,5) -6.97242 (1,9,4) 0.827502
(1,8,5): (1,7,5) 8.07619 (1,8,4) 6.97242 (1,8,6) -44.9778 (1,9,5) 7.05659
(1,8,6): (1,7,6) 47.9618 (1,8,5) 44.9778 (1,8,7) 44.9778 (1,9,6) 46.3062
(1,8,7): (1,7,7) 8.07619 (1,8,6) -44.9778 (1,8,8) 6.97241 (1,9,7) 7.05659
(1,8,8): (1,7,8) 1.14741 (1,8,7) -6.97241 (1,8,9) 0.872258 (1,9,8) 0.827504
(1,8,9): (1,7,9) 0.138767 (1,8,8) -0.872258 (1,8,10) 9.238300E-02 (1,9,9) 8.081465E-02
(1,8,10): (1,7,10) 1.602813E-02 (1,8,9) -9.238300E-02 (1,9,10) 7.418421E-03
(1,9,1): (1,8,1) -5.661540E-04 (1,9,2) -2.450250E-03 (1,10,1) 6.941296E-04
(1,9,2): (1,8,2) -6.891986E-03 (1,9,1) 2.450250E-03 (1,9,3) -1.924987E-02 (1,10,2) 8.291399E-03
(1,9,3): (1,8,3) -8.077761E-02 (1,9,2) 1.924987E-02 (1,9,4) -0.125264 (1,10,3) 0.100776
(1,9,4): (1,8,4) -0.827502 (1,9,3) 0.125264 (1,9,5) -0.748319 (1,10,4) 1.13158
(1,9,5): (1,8,5) -7.05659 (1,9,4) 0.748319 (1,9,6) -6.12827 (1,10,5) 11.1736
(1,9,6): (1,8,6) -46.3062 (1,9,5) 6.12827 (1,9,7) 6.12826 (1,10,6) 18.0329
(1,9,7): (1,8,7) -7.05659 (1,9,6) -6.12826 (1,9,8) 0.748316 (1,10,7) 11.1736
(1,9,8): (1,8,8) -0.827504 (1,9,7) -0.748316 (1,9,9) 0.125237 (1,10,8) 1.13158
(1,9,9): (1,8,9) -8.081465E-02 (1,9,8) -0.125237 (1,9,10) 1.897828E-02 (1,10,9) 0.100824
(1,9,10): (1,8,10) -7.418421E-03 (1,9,9) -1.897828E-02 (1,10,10) 8.933733E-03
(1,10,1): (1,9,1) -6.941296E-04 (1,10,2) 5.146841E-03 (1,11,1) -2.314998E-04
(1,10,2): (1,9,2) -8.291399E-03 (1,10,1) -5.146841E-03 (1,10,3) 7.321312E-02 (1,11,2) -3.919464E-03
(1,10,3): (1,9,3) -0.100776 (1,10,2) -7.321312E-02 (1,10,4) 0.903389 (1,11,3) -6.057610E-02
(1,10,4): (1,9,4) -1.13158 (1,10,3) -0.903389 (1,10,5) 9.12911 (1,11,4) -0.811752
(1,10,5): (1,9,5) -11.1736 (1,10,4) -9.12911 (1,10,6) 8.614196E-02 (1,11,5) -9.01051
(1,10,6): (1,9,6) -18.0329 (1,10,5) -8.614196E-02 (1,10,7) -8.614192E-02 (1,11,6) -9.03685
(1,10,7): (1,9,7) -11.1736 (1,10,6) 8.614192E-02 (1,10,8) -9.12911 (1,11,7) -9.01051
(1,10,8): (1,9,8) -1.13158 (1,10,7) 9.12911 (1,10,9) -0.903371 (1,11,8) -0.811753
(1,10,9): (1,9,9) -0.100824 (1,10,8) 0.903371 (1,10,10) -7.289022E-02 (1,11,9) -6.058658E-02
(1,10,10): (1,9,10) -8.933733E-03 (1,10,9) 7.289022E-02 (1,11,10) -4.140172E-03
(1,11,1): (1,10,1) 2.314998E-04 (1,11,2) 1.458832E-03 (1,12,1) -1.047304E-04
(1,11,2): (1,10,2) 3.919464E-03 (1,11,1) -1.458832E-03 (1,11,3) 1.654933E-02 (1,12,2) -1.327565E-03
(1,11,3): (1,10,3) 6.057610E-02 (1,11,2) -1.654933E-02 (1,11,4) 0.151538 (1,12,3) -1.560756E-02
(1,11,4): (1,10,4) 0.811752 (1,11,3) -0.151538 (1,11,5) 0.922283 (1,12,4) -0.150246
(1,11,5): (1,10,5) 9.01051 (1,11,4) -0.922283 (1,11,6) 6.128360E-02 (1,12,5) -0.995720
(1,11,6): (1,10,6) 9.03685 (1,11,5) -6.128360E-02 (1,11,7) -6.128357E-02 (1,12,6) -1.04948
(1,11,7): (1,10,7) 9.01051 (1,11,6) 6.128357E-02 (1,11,8) -0.922282 (1,12,7) -0.995720
(1,11,8): (1,10,8) 0.811753 (1,11,7) 0.922282 (1,11,9) -0.151530 (1,12,8) -0.150246
(1,11,9): (1,10,9) 6.058658E-02 (1,11,8) 0.151530 (1,11,10) -1.643688E-02 (1,12,9) -1.561403E-02
(1,11,10): (1,10,10) 4.140172E-03 (1,11,9) 1.643688E-02 (1,12,10) -1.425422E-03
(1,12,1): (1,11,1) 1.047304E-04 (1,12,2) 2.359958E-04 (1,13,1) -2.126400E-05
(1,12,2): (1,11,2) 1.327565E-03 (1,12,1) -2.359958E-04 (1,12,3) 2.269200E-03 (1,13,2) -2.283328E-04
(1,12,3): (1,11,3) 1.560756E-02 (1,12,2) -2.269200E-03 (1,12,4) 1.689798E-02 (1,13,3) -2.254302E-03
(1,12,4): (1,11,4) 0.150246 (1,12,3) -1.689798E-02 (1,12,5) 7.741494E-02 (1,13,4) -1.761028E-02
(1,12,5): (1,11,5) 0.995720 (1,12,4) -7.741494E-02 (1,12,6) 8.041057E-03 (1,13,5) -8.924909E-02
(1,12,6): (1,11,6) 1.04948 (1,12,5) -8.041057E-03 (1,12,7) -8.041048E-03 (1,13,6) -9.654120E-02
(1,12,7): (1,11,7) 0.995720 (1,12,6) 8.041048E-03 (1,12,8) -7.741482E-02 (1,13,7) -8.924910E-02
(1,12,8): (1,11,8) 0.150246 (1,12,7) 7.741482E-02 (1,12,9) -1.689631E-02 (1,13,8) -1.761039E-02
(1,12,9): (1,11,9) 1.561403E-02 (1,12,8) 1.689631E-02 (1,12,10) -2.248158E-03 (1,13,9) -2.255811E-03
(1,12,10): (1,11,10) 1.425422E-03 (1,12,9) 2.248158E-03 (1,13,10) -2.479756E-04
(1,13,1): (1,12,1) 2.126400E-05 (1,13,2) 2.892699E-05 (1,14,1) -3.082211E-06
(1,13,2): (1,12,2) 2.283328E-04 (1,13,1) -2.892699E-05 (1,13,3) 2.432310E-04 (1,14,2) -2.903107E-05
(1,13,3): (1,12,3) 2.254302E-03 (1,13,2) -2.432310E-04 (1,13,4) 1.542103E-03 (1,14,3) -2.499087E-04
(1,13,4): (1,12,4) 1.761028E-02 (1,13,3) -1.542103E-03 (1,13,5) 5.784589E-03 (1,14,4) -1.667913E-03
(1,13,5): (1,12,5) 8.924909E-02 (1,13,4) -5.784589E-03 (1,13,6) 7.553840E-04 (1,14,5) -7.054139E-03
(1,13,6): (1,12,6) 9.654120E-02 (1,13,5) -7.553840E-04 (1,13,7) -7.553819E-04 (1,14,6) -7.749687E-03
(1,13,7): (1,12,7) 8.924910E-02 (1,13,6) 7.553819E-04 (1,13,8) -5.784568E-03 (1,14,7) -7.054140E-03
(1,13,8): (1,12,8) 1.761039E-02 (1,13,7) 5.784568E-03 (1,13,9) -1.541846E-03 (1,14,8) -1.667932E-03
(1,13,9): (1,12,9) 2.255811E-03 (1,13,8) 1.541846E-03 (1,13,10) -2.403226E-04 (1,14,9) -2.501514E-04
(1,13,10): (1,12,10) 2.479756E-04 (1,13,9) 2.403226E-04 (1,14,10) -3.185008E-05
(1,14,1): (1,13,1) 3.082211E-06 (1,14,2) 2.978132E-06 (1,15,1) -3.611040E-07
(1,14,2): (1,13,2) 2.903107E-05 (1,14,1) -2.978132E-06 (1,14,3) 2.235340E-05 (1,15,2) -3.047034E-06
(1,14,3): (1,13,3) 2.499087E-04 (1,14,2) -2.235340E-05 (1,14,4) 1.241001E-04 (1,15,3) -2.341996E-05
(1,14,4): (1,13,4) 1.667913E-03 (1,14,3) -1.241001E-04 (1,14,5) 3.984311E-04 (1,15,4) -1.377631E-04
(1,14,5): (1,13,5) 7.054139E-03 (1,14,4) -3.984311E-04 (1,14,6) 5.988464E-05 (1,15,5) -5.088112E-04
(1,14,6): (1,13,6) 7.749687E-03 (1,14,5) -5.988464E-05 (1,14,7) -5.988379E-05 (1,15,6) -5.641740E-04
(1,14,7): (1,13,7) 7.054140E-03 (1,14,6) 5.988379E-05 (1,14,8) -3.984278E-04 (1,15,7) -5.088114E-04
(1,14,8): (1,13,8) 1.667932E-03 (1,14,7) 3.984278E-04 (1,14,9) -1.240676E-04 (1,15,8) -1.377656E-04
(1,14,9): (1,13,9) 2.501514E-04 (1,14,8) 1.240676E-04 (1,14,10) -2.202122E-05 (1,15,9) -2.345087E-05
(1,14,10): (1,13,10) 3.185008E-05 (1,14,9) 2.202122E-05 (1,15,10) -3.374241E-06
(1,15,1): (1,14,1) 3.611040E-07 (1,15,2) 2.922018E-07
(1,15,2): (1,14,2) 3.047034E-06 (1,15,1) -2.922018E-07 (1,15,3) 1.980479E-06
(1,15,3): (1,14,3) 2.341996E-05 (1,15,2) -1.980479E-06 (1,15,4) 9.757046E-06
(1,15,4): (1,14,4) 1.377631E-04 (1,15,3) -9.757046E-06 (1,15,5) 2.738337E-05
(1,15,5): (1,14,5) 5.088112E-04 (1,15,4) -2.738337E-05 (1,15,6) 4.522122E-06
(1,15,6): (1,14,6) 5.641740E-04 (1,15,5) -4.522122E-06 (1,15,7) -4.521428E-06
(1,15,7): (1,14,7) 5.088114E-04 (1,15,6) 4.521428E-06 (1,15,8) -2.738244E-05
(1,15,8): (1,14,8) 1.377656E-04 (1,15,7) 2.738244E-05 (1,15,9) -9.752907E-06
(1,15,9): (1,14,9) 2.345087E-05 (1,15,8) 9.752907E-06 (1,15,10) -1.944594E-06
(1,15,10): (1,14,10) 3.374241E-06 (1,15,9) 1.944594E-06

 WEL PACKAGE (WEL-1) FLOW RATES   PERIOD      2   STEP        8
 ----------------------------------------------------------------------------------------
   NUMBER   CELLID                    RATE       NAME                                    
 ----------------------------------------------------------------------------------------
     1      (1,8,6)              -270.00000      WEL                                     
 ----------------------------------------------------------------------------------------




 DRN PACKAGE (DRN-0) FLOW RATES   PERIOD      2   STEP        8
 ----------------------------------------------------------------------------------------
   NUMBER   CELLID                    RATE       NAME                                    
 ----------------------------------------------------------------------------------------
     1      (1,1,1)               0.0000000      SURF                                    
     2      (1,1,2)               0.0000000      SURF                                    
     3      (1,1,3)               0.0000000      SURF                                    
     4      (1,1,4)               0.0000000      SURF                                    
     5      (1,1,5)               0.0000000      SURF                                    
     6      (1,1,6)               0.0000000      SURF                                    
     7      (1,1,7)               0.0000000      SURF                                    
     8      (1,1,8)               0.0000000      SURF                                    
     9      (1,1,9)               0.0000000      SURF                                    
     10     (1,1,10)              0.0000000      SURF                                    
     11     (1,2,1)               0.0000000      SURF                                    
     12     (1,2,2)               0.0000000      SURF                                    
     13     (1,2,3)               0.0000000      SURF                                    
     14     (1,2,4)               0.0000000      SURF                                    
     15     (1,2,5)               0.0000000      SURF                                    
     16     (1,2,6)               0.0000000      SURF                                    
     17     (1,2,7)               0.0000000      SURF                                    
     18     (1,2,8)               0.0000000      SURF                                    
     19     (1,2,9)               0.0000000      SURF                                    
     20     (1,2,10)              0.0000000      SURF                                    
     21     (1,3,1)               0.0000000      SURF                                    
     22     (1,3,2)               0.0000000      SURF                                    
     23     (1,3,3)               0.0000000      SURF                                    
     24     (1,3,4)               0.0000000      SURF                                    
     25     (1,3,5)               0.0000000      SURF                                    
     26     (1,3,6)               0.0000000      SURF                                    
     27     (1,3,7)               0.0000000      SURF                                    
     28     (1,3,8)               0.0000000      SURF                                    
     29     (1,3,9)               0.0000000      SURF                                    
     30     (1,3,10)              0.0000000      SURF                                    
     31     (1,4,1)               0.0000000      SURF                                    
     32     (1,4,2)               0.0000000      SURF                                    
     33     (1,4,3)               0.0000000      SURF                                    
     34     (1,4,4)               0.0000000      SURF                                    
     35     (1,4,5)               0.0000000      SURF                                    
     36     (1,4,6)               0.0000000      SURF                                    
     37     (1,4,7)               0.0000000      SURF                                    
     38     (1,4,8)               0.0000000      SURF                                    
     39     (1,4,9)               0.0000000      SURF                                    
     40     (1,4,10)              0.0000000      SURF                                    
     41     (1,5,1)               0.0000000      SURF                                    
     42     (1,5,2)               0.0000000      SURF                                    
     43     (1,5,3)               0.0000000      SURF                                    
     44     (1,5,4)               0.0000000      SURF                                    
     45     (1,5,5)               0.0000000      SURF                                    
     46     (1,5,6)               0.0000000      SURF                                    
     47     (1,5,7)               0.0000000      SURF                                    
     48     (1,5,8)               0.0000000      SURF                                    
     49     (1,5,9)               0.0000000      SURF                                    
     50     (1,5,10)              0.0000000      SURF                                    
     51     (1,6,1)               0.0000000      SURF                                    
     52     (1,6,2)               0.0000000      SURF                                    
     53     (1,6,3)               0.0000000      SURF                                    
     54     (1,6,4)               0.0000000      SURF                                    
     55     (1,6,5)               0.0000000      SURF                                    
     56     (1,6,6)              -3.80139682E-07 SURF                                    
     57     (1,6,7)               0.0000000      SURF                                    
     58     (1,6,8)               0.0000000      SURF                                    
     59     (1,6,9)               0.0000000      SURF                                    
     60     (1,6,10)              0.0000000      SURF                                    
     61     (1,7,1)               0.0000000      SURF                                    
     62     (1,7,2)               0.0000000      SURF                                    
     63     (1,7,3)               0.0000000      SURF                                    
     64     (1,7,4)               0.0000000      SURF                                    
     65     (1,7,5)               0.0000000      SURF                                    
     66     (1,7,6)               0.0000000      SURF                                    
     67     (1,7,7)               0.0000000      SURF                                    
     68     (1,7,8)               0.0000000      SURF                                    
     69     (1,7,9)               0.0000000      SURF                                    
     70     (1,7,10)              0.0000000      SURF                                    
     71     (1,8,1)               0.0000000      SURF                                    
     72     (1,8,2)               0.0000000      SURF                                    
     73     (1,8,3)               0.0000000      SURF                                    
     74     (1,8,4)               0.0000000      SURF                                    
     75     (1,8,5)               0.0000000      SURF                                    
     76     (1,8,6)               0.0000000      SURF                                    
     77     (1,8,7)               0.0000000      SURF                                    
     78     (1,8,8)               0.0000000      SURF                                    
     79     (1,8,9)               0.0000000      SURF                                    
     80     (1,8,10)              0.0000000      SURF                                    
     81     (1,9,1)               0.0000000      SURF                                    
     82     (1,9,2)               0.0000000      SURF                                    
     83     (1,9,3)               0.0000000      SURF                                    
     84     (1,9,4)               0.0000000      SURF                                    
     85     (1,9,5)               0.0000000      SURF                                    
     86     (1,9,6)               0.0000000      SURF                                    
     87     (1,9,7)               0.0000000      SURF                                    
     88     (1,9,8)               0.0000000      SURF                                    
     89     (1,9,9)               0.0000000      SURF                                    
     90     (1,9,10)              0.0000000      SURF                                    
     91     (1,10,1)              0.0000000      SURF                                    
     92     (1,10,2)              0.0000000      SURF                                    
     93     (1,10,3)              0.0000000      SURF                                    
     94     (1,10,4)              0.0000000      SURF                                    
     95     (1,10,5)              0.0000000      SURF                                    
     96     (1,10,6)              0.0000000      SURF                                    
     97     (1,10,7)              0.0000000      SURF                                    
     98     (1,10,8)              0.0000000      SURF                                    
     99     (1,10,9)              0.0000000      SURF                                    
    100     (1,10,10)             0.0000000      SURF                                    
    101     (1,11,1)              0.0000000      SURF                                    
    102     (1,11,2)              0.0000000      SURF                                    
    103     (1,11,3)              0.0000000      SURF                                    
    104     (1,11,4)              0.0000000      SURF                                    
    105     (1,11,5)              0.0000000      SURF                                    
    106     (1,11,6)              0.0000000      SURF                                    
    107     (1,11,7)              0.0000000      SURF                                    
    108     (1,11,8)              0.0000000      SURF                                    
    109     (1,11,9)              0.0000000      SURF                                    
    110     (1,11,10)             0.0000000      SURF                                    
    111     (1,12,1)              0.0000000      SURF                                    
    112     (1,12,2)              0.0000000      SURF                                    
    113     (1,12,3)              0.0000000      SURF                                    
    114     (1,12,4)              0.0000000      SURF                                    
    115     (1,12,5)              0.0000000      SURF                                    
    116     (1,12,6)              0.0000000      SURF                                    
    117     (1,12,7)              0.0000000      SURF                                    
    118     (1,12,8)              0.0000000      SURF                                    
    119     (1,12,9)              0.0000000      SURF                                    
    120     (1,12,10)             0.0000000      SURF                                    
    121     (1,13,1)              0.0000000      SURF                                    
    122     (1,13,2)              0.0000000      SURF                                    
    123     (1,13,3)              0.0000000      SURF                                    
    124     (1,13,4)              0.0000000      SURF                                    
    125     (1,13,5)              0.0000000      SURF                                    
    126     (1,13,6)              0.0000000      SURF                                    
    127     (1,13,7)              0.0000000      SURF                                    
    128     (1,13,8)              0.0000000      SURF                                    
    129     (1,13,9)              0.0000000      SURF                                    
    130     (1,13,10)             0.0000000      SURF                                    
    131     (1,14,1)              0.0000000      SURF                                    
    132     (1,14,2)              0.0000000      SURF                                    
    133     (1,14,3)              0.0000000      SURF                                    
    134     (1,14,4)              0.0000000      SURF                                    
    135     (1,14,5)              0.0000000      SURF                                    
    136     (1,14,6)              0.0000000      SURF                                    
    137     (1,14,7)              0.0000000      SURF                                    
    138     (1,14,8)              0.0000000      SURF                                    
    139     (1,14,9)              0.0000000      SURF                                    
    140     (1,14,10)             0.0000000      SURF                                    
    141     (1,15,1)              0.0000000      SURF                                    
    142     (1,15,2)              0.0000000      SURF                                    
    143     (1,15,3)              0.0000000      SURF                                    
    144     (1,15,4)              0.0000000      SURF                                    
    145     (1,15,5)              0.0000000      SURF                                    
    146     (1,15,6)              0.0000000      SURF                                    
    147     (1,15,7)              0.0000000      SURF                                    
    148     (1,15,8)              0.0000000      SURF                                    
    149     (1,15,9)              0.0000000      SURF                                    
    150     (1,15,10)             0.0000000      SURF                                    
 ----------------------------------------------------------------------------------------




 API PACKAGE (MAR) FLOW RATES   PERIOD      2   STEP        8
 -----------------------------------------------
   NUMBER   CELLID                    RATE      
 -----------------------------------------------
     1      (1,6,5)               27.134545     
     2      (1,6,6)               27.134545     
     3      (1,6,7)               27.134545     
     4      (1,10,5)              62.865455     
     5      (1,10,6)              62.865455     
     6      (1,10,7)              62.865455     
 -----------------------------------------------



1
  HEAD IN LAYER   1 AT END OF TIME STEP   8 IN STRESS PERIOD    2
  ---------------------------------------------------------------------------

            1           2           3           4           5           6           7           8           9          10
 ........................................................................................................................
   1   8.8477E-08  5.3212E-07  2.9695E-06  1.2624E-05  3.4648E-05  4.1667E-05  3.4648E-05  1.2625E-05  2.9793E-06  6.0922E-07
   2   6.4876E-07  4.2464E-06  2.5724E-05  1.1900E-04  3.5290E-04  4.2184E-04  3.5290E-04  1.1900E-04  2.5792E-05  4.8185E-06
   3   4.5589E-06  3.2486E-05  2.1418E-04  1.0841E-03  3.5081E-03  4.1559E-03  3.5081E-03  1.0842E-03  2.1463E-04  3.6544E-05
   4   2.6256E-05  2.0531E-04  1.4888E-03  8.3684E-03  3.0174E-02  3.5224E-02  3.0174E-02  8.3687E-03  1.4912E-03  2.2889E-04
   5   1.1156E-04  9.6647E-04  7.8151E-03  4.9791E-02  0.2067      0.2345      0.2067      4.9792E-02  7.8247E-03  1.0676E-03
   6   2.7156E-04  2.6274E-03  2.4089E-02  0.1799      0.9458       1.000      0.9458      0.1799      2.4110E-02  2.8756E-03
   7   6.0917E-05  4.9737E-04  3.5768E-03  1.6941E-02  5.4593E-03 -0.5930      5.4593E-03  1.6941E-02  3.5822E-03  5.5243E-04
   8  -8.9930E-05 -9.6756E-04 -1.0283E-02 -9.7605E-02 -0.8017      -5.692     -0.8017     -9.7605E-02 -1.0290E-02 -1.0503E-03
   9  -3.3315E-05 -2.7834E-04 -2.2034E-03 -1.4732E-02 -8.9675E-02 -0.7080     -8.9675E-02 -1.4733E-02 -2.2063E-03 -3.0843E-04
  10   3.6098E-05  5.5075E-04  7.8663E-03  9.7334E-02  0.9324      0.9403      0.9324      9.7334E-02  7.8682E-03  5.8489E-04
  11   1.2948E-05  1.5883E-04  1.8135E-03  1.6942E-02  0.1082      0.1142      0.1082      1.6942E-02  1.8143E-03  1.7090E-04
  12   2.4752E-06  2.6075E-05  2.5299E-04  1.9425E-03  9.6765E-03  1.0480E-02  9.6765E-03  1.9425E-03  2.5317E-04  2.8358E-05
  13   3.4877E-07  3.2415E-06  2.7564E-05  1.8177E-04  7.6019E-04  8.3572E-04  7.6019E-04  1.8177E-04  2.7592E-05  3.5603E-06
  14   4.0550E-08  3.3836E-07  2.5737E-06  1.4984E-05  5.4827E-05  6.0815E-05  5.4827E-05  1.4984E-05  2.5774E-06  3.7525E-07
  15   4.4400E-09  3.3660E-08  2.3171E-07  1.2074E-06  3.9457E-06  4.3980E-06  3.9458E-06  1.2076E-06  2.3228E-07  3.7825E-08

 HEAD WILL BE SAVED ON UNIT 1100 AT END OF TIME STEP    8, STRESS PERIOD    2


  VOLUME BUDGET FOR ENTIRE MODEL AT END OF TIME STEP    8, STRESS PERIOD   2
  ---------------------------------------------------------------------------------------------------

     CUMULATIVE VOLUME      L**3       RATES FOR THIS TIME STEP      L**3/T          PACKAGE NAME    
     ------------------                 ------------------------                     ----------------

           IN:                                      IN:
           ---                                      ---
              STO-SS =           7.4327                STO-SS =       6.6794E-02     STORAGE                          
              STO-SY =       18316.9347                STO-SY =         186.1266     STORAGE                          
                 WEL =           0.0000                   WEL =           0.0000     WEL-1                            
                 DRN =           0.0000                   DRN =           0.0000     DRN-0                            
                 API =       18900.0000                   API =         270.0000     MAR                              
                 CHD =       2.0279E-08                   CHD =           0.0000     CHD_0                            

            TOTAL IN =       37224.3673              TOTAL IN =         456.1934

          OUT:                                     OUT:
          ----                                     ----
              STO-SS =           8.0949                STO-SS =       9.7907E-02     STORAGE                          
              STO-SY =       15616.2724                STO-SY =         186.0955     STORAGE                          
                 WEL =       21600.0000                   WEL =         270.0000     WEL-1                            
                 DRN =       1.9457E-05                   DRN =       3.8014E-07     DRN-0                            
                 API =           0.0000                   API =           0.0000     MAR                              
                 CHD =       2.0705E-08                   CHD =           0.0000     CHD_0                            

           TOTAL OUT =       37224.3673             TOTAL OUT =         456.1934

            IN - OUT =       6.3454E-08              IN - OUT =       1.5631E-09

 PERCENT DISCREPANCY =           0.00     PERCENT DISCREPANCY =           0.00




         TIME SUMMARY AT END OF TIME STEP    8 IN STRESS PERIOD    2
                    SECONDS     MINUTES      HOURS       DAYS        YEARS
                    -----------------------------------------------------------
   TIME STEP LENGTH 8.64000E+05  14400.      240.00      10.000     2.73785E-02
 STRESS PERIOD TIME 6.91200E+06 1.15200E+05  1920.0      80.000     0.21903    
         TOTAL TIME 6.99840E+06 1.16640E+05  1944.0      81.000     0.22177    


end timestep


start timestep kper="2" kstp="9" mode="normal"

 UBDSV1 SAVING           STO-SS ON UNIT   1099 AT TIME STEP      9, STRESS PERIOD      2
 UBDSV1 SAVING           STO-SY ON UNIT   1099 AT TIME STEP      9, STRESS PERIOD      2
 UBDSV1 SAVING     FLOW-JA-FACE ON UNIT   1099 AT TIME STEP      9, STRESS PERIOD      2
 UBDSV06 SAVING       DATA-SPDIS IN MODEL GWF              PACKAGE NPF             CONNECTED TO MODEL GWF              PACKAGE NPF              ON UNIT   1099 AT TIME STEP      9, STRESS PERIOD      2
 UBDSV06 SAVING              WEL IN MODEL GWF              PACKAGE GWF             CONNECTED TO MODEL GWF              PACKAGE WEL-1            ON UNIT   1099 AT TIME STEP      9, STRESS PERIOD      2
 UBDSV06 SAVING              DRN IN MODEL GWF              PACKAGE GWF             CONNECTED TO MODEL GWF              PACKAGE DRN-0            ON UNIT   1099 AT TIME STEP      9, STRESS PERIOD      2
 UBDSV06 SAVING              API IN MODEL GWF              PACKAGE GWF             CONNECTED TO MODEL GWF              PACKAGE MAR              ON UNIT   1099 AT TIME STEP      9, STRESS PERIOD      2
 UBDSV06 SAVING              CHD IN MODEL GWF              PACKAGE GWF             CONNECTED TO MODEL GWF              PACKAGE CHD_0            ON UNIT   1099 AT TIME STEP      9, STRESS PERIOD      2

    CALCULATED INTERCELL FLOW FOR PERIOD 2 STEP 9
(1,1,1): (1,1,2) 8.618258E-06 (1,2,1) 1.088634E-05
(1,1,2): (1,1,1) -8.618258E-06 (1,1,3) 4.450150E-05 (1,2,2) 6.729888E-05
(1,1,3): (1,1,2) -4.450150E-05 (1,1,4) 1.648075E-04 (1,2,3) 3.856253E-04
(1,1,4): (1,1,3) -1.648075E-04 (1,1,5) 3.519929E-04 (1,2,4) 1.684699E-03
(1,1,5): (1,1,4) -3.519929E-04 (1,1,6) 1.171726E-04 (1,2,5) 4.743040E-03
(1,1,6): (1,1,5) -1.171726E-04 (1,1,7) -1.171702E-04 (1,2,6) 5.682682E-03
(1,1,7): (1,1,6) 1.171702E-04 (1,1,8) -3.519698E-04 (1,2,7) 4.743054E-03
(1,1,8): (1,1,7) 3.519698E-04 (1,1,9) -1.646155E-04 (1,2,8) 1.684834E-03
(1,1,9): (1,1,8) 1.646155E-04 (1,1,10) -4.311015E-05 (1,2,9) 3.868220E-04
(1,1,10): (1,1,9) 4.311015E-05 (1,2,10) 7.683919E-05
(1,2,1): (1,1,1) -1.088634E-05 (1,2,2) 6.503080E-05 (1,3,1) 7.108380E-05
(1,2,2): (1,1,2) -6.729888E-05 (1,2,1) -6.503080E-05 (1,2,3) 3.628279E-04 (1,3,2) 4.761147E-04
(1,2,3): (1,1,3) -3.856253E-04 (1,2,2) -3.628279E-04 (1,2,4) 1.463879E-03 (1,3,3) 2.953627E-03
(1,2,4): (1,1,4) -1.684699E-03 (1,2,3) -1.463879E-03 (1,2,5) 3.410293E-03 (1,3,4) 1.403510E-02
(1,2,5): (1,1,5) -4.743040E-03 (1,2,4) -3.410293E-03 (1,2,6) 1.056771E-03 (1,3,5) 4.282542E-02
(1,2,6): (1,1,6) -5.682682E-03 (1,2,5) -1.056771E-03 (1,2,7) -1.056754E-03 (1,3,6) 5.087583E-02
(1,2,7): (1,1,7) -4.743054E-03 (1,2,6) 1.056754E-03 (1,2,8) -3.410149E-03 (1,3,7) 4.282550E-02
(1,2,8): (1,1,8) -1.684834E-03 (1,2,7) 3.410149E-03 (1,2,9) -1.462624E-03 (1,3,8) 1.403588E-02
(1,2,9): (1,1,9) -3.868220E-04 (1,2,8) 1.462624E-03 (1,2,10) -3.530928E-04 (1,3,9) 2.960995E-03
(1,2,10): (1,1,10) -7.683919E-05 (1,2,9) 3.530928E-04 (1,3,10) 5.389783E-04
(1,3,1): (1,2,1) -7.108380E-05 (1,3,2) 4.700617E-04 (1,4,1) 3.662085E-04
(1,3,2): (1,2,2) -4.761147E-04 (1,3,1) -4.700617E-04 (1,3,3) 2.840338E-03 (1,4,2) 2.688738E-03
(1,3,3): (1,2,3) -2.953627E-03 (1,3,2) -2.840338E-03 (1,3,4) 1.254519E-02 (1,4,3) 1.830771E-02
(1,3,4): (1,2,4) -1.403510E-02 (1,3,3) -1.254519E-02 (1,3,5) 3.219756E-02 (1,4,4) 9.635475E-02
(1,3,5): (1,2,5) -4.282542E-02 (1,3,4) -3.219756E-02 (1,3,6) 9.103819E-03 (1,4,5) 0.326817
(1,3,6): (1,2,6) -5.087583E-02 (1,3,5) -9.103819E-03 (1,3,7) -9.103728E-03 (1,4,6) 0.382420
(1,3,7): (1,2,7) -4.282550E-02 (1,3,6) 9.103728E-03 (1,3,8) -3.219671E-02 (1,4,7) 0.326817
(1,3,8): (1,2,8) -1.403588E-02 (1,3,7) 3.219671E-02 (1,3,9) -1.253734E-02 (1,4,8) 9.635826E-02
(1,3,9): (1,2,9) -2.960995E-03 (1,3,8) 1.253734E-02 (1,3,10) -2.775105E-03 (1,4,9) 1.834319E-02
(1,3,10): (1,2,10) -5.389783E-04 (1,3,9) 2.775105E-03 (1,4,10) 3.015719E-03
(1,4,1): (1,3,1) -3.662085E-04 (1,4,2) 2.792594E-03 (1,5,1) 1.325065E-03
(1,4,2): (1,3,2) -2.688738E-03 (1,4,1) -2.792594E-03 (1,4,3) 1.845934E-02 (1,5,2) 1.082294E-02
(1,4,3): (1,3,3) -1.830771E-02 (1,4,2) -1.845934E-02 (1,4,4) 9.058774E-02 (1,5,3) 8.244632E-02
(1,4,4): (1,3,4) -9.635475E-02 (1,4,3) -9.058774E-02 (1,4,5) 0.262513 (1,5,4) 0.494710
(1,4,5): (1,3,5) -0.326817 (1,4,4) -0.262513 (1,4,6) 6.453207E-02 (1,5,5) 1.96501
(1,4,6): (1,3,6) -0.382420 (1,4,5) -6.453207E-02 (1,4,7) -6.453166E-02 (1,5,6) 2.22694
(1,4,7): (1,3,7) -0.326817 (1,4,6) 6.453166E-02 (1,4,8) -0.262509 (1,5,7) 1.96501
(1,4,8): (1,3,8) -9.635826E-02 (1,4,7) 0.262509 (1,4,9) -9.054788E-02 (1,5,8) 0.494720
(1,4,9): (1,3,9) -1.834319E-02 (1,4,8) 9.054788E-02 (1,4,10) -1.810254E-02 (1,5,9) 8.256514E-02
(1,4,10): (1,3,10) -3.015719E-03 (1,4,9) 1.810254E-02 (1,5,10) 1.201808E-02
(1,5,1): (1,4,1) -1.325065E-03 (1,5,2) 1.229061E-02 (1,6,1) 2.231148E-03
(1,5,2): (1,4,2) -1.082294E-02 (1,5,1) -1.229061E-02 (1,5,3) 9.008818E-02 (1,6,2) 2.105396E-02
(1,5,3): (1,4,3) -8.244632E-02 (1,5,2) -9.008818E-02 (1,5,4) 0.502884 (1,6,3) 0.188054
(1,5,4): (1,4,4) -0.494710 (1,5,3) -0.502884 (1,5,5) 1.72952 (1,6,4) 1.38938
(1,5,5): (1,4,5) -1.96501 (1,5,4) -1.72952 (1,5,6) 0.321837 (1,6,5) 7.92235
(1,5,6): (1,4,6) -2.22694 (1,5,5) -0.321837 (1,5,7) -0.321835 (1,6,6) 8.13087
(1,5,7): (1,4,7) -1.96501 (1,5,6) 0.321835 (1,5,8) -1.72951 (1,6,7) 7.92235
(1,5,8): (1,4,8) -0.494720 (1,5,7) 1.72951 (1,5,9) -0.502736 (1,6,8) 1.38940
(1,5,9): (1,4,9) -8.256514E-02 (1,5,8) 0.502736 (1,5,10) -8.865390E-02 (1,6,9) 0.188234
(1,5,10): (1,4,10) -1.201808E-02 (1,5,9) 8.865390E-02 (1,6,10) 2.309090E-02
(1,6,1): (1,5,1) -2.231148E-03 (1,6,2) 3.111531E-02 (1,7,1) -3.061303E-03
(1,6,2): (1,5,2) -2.105396E-02 (1,6,1) -3.111531E-02 (1,6,3) 0.257203 (1,7,2) -2.822004E-02
(1,6,3): (1,5,3) -0.188054 (1,6,2) -0.257203 (1,6,4) 1.70789 (1,7,3) -0.248600
(1,6,4): (1,5,4) -1.38938 (1,6,3) -1.70789 (1,6,5) 8.28175 (1,7,4) -1.83271
(1,6,5): (1,5,5) -7.92235 (1,6,4) -8.28175 (1,6,6) 0.519386 (1,7,5) -10.6286
(1,6,6): (1,5,6) -8.13087 (1,6,5) -0.519386 (1,6,7) -0.519383 (1,7,6) -18.5332
(1,6,7): (1,5,7) -7.92235 (1,6,6) 0.519383 (1,6,8) -8.28172 (1,7,7) -10.6286
(1,6,8): (1,5,8) -1.38940 (1,6,7) 8.28172 (1,6,9) -1.70757 (1,7,8) -1.83273
(1,6,9): (1,5,9) -0.188234 (1,6,8) 1.70757 (1,6,10) -0.253905 (1,7,9) -0.248853
(1,6,10): (1,5,10) -2.309090E-02 (1,6,9) 0.253905 (1,7,10) -3.100767E-02
(1,7,1): (1,6,1) 3.061303E-03 (1,7,2) 5.955845E-03 (1,8,1) -2.298138E-03
(1,7,2): (1,6,2) 2.822004E-02 (1,7,1) -5.955845E-03 (1,7,3) 3.680407E-02 (1,8,2) -2.051515E-02
(1,7,3): (1,6,3) 0.248600 (1,7,2) -3.680407E-02 (1,7,4) 0.125675 (1,8,3) -0.178993
(1,7,4): (1,6,4) 1.83271 (1,7,3) -0.125675 (1,7,5) -0.345888 (1,8,4) -1.36628
(1,7,5): (1,6,5) 10.6286 (1,7,4) 0.345888 (1,7,6) -6.66045 (1,8,5) -8.93124
(1,7,6): (1,6,6) 18.5332 (1,7,5) 6.66045 (1,7,7) 6.66045 (1,8,6) -50.2302
(1,7,7): (1,6,7) 10.6286 (1,7,6) -6.66045 (1,7,8) 0.345896 (1,8,7) -8.93124
(1,7,8): (1,6,8) 1.83273 (1,7,7) -0.345896 (1,7,9) -0.125593 (1,8,8) -1.36630
(1,7,9): (1,6,9) 0.248853 (1,7,8) 0.125593 (1,7,10) -3.604829E-02 (1,8,9) -0.179189
(1,7,10): (1,6,10) 3.100767E-02 (1,7,9) 3.604829E-02 (1,8,10) -2.259957E-02
(1,8,1): (1,7,1) 2.298138E-03 (1,8,2) -1.226002E-02 (1,9,1) 8.801596E-04
(1,8,2): (1,7,2) 2.051515E-02 (1,8,1) 1.226002E-02 (1,8,3) -0.121597 (1,9,2) 1.002697E-02
(1,8,3): (1,7,3) 0.178993 (1,8,2) 0.121597 (1,8,4) -1.05817 (1,9,3) 0.109301
(1,8,4): (1,7,4) 1.36628 (1,8,3) 1.05817 (1,8,5) -7.83360 (1,9,4) 1.03142
(1,8,5): (1,7,5) 8.93124 (1,8,4) 7.83360 (1,8,6) -46.9363 (1,9,5) 8.04209
(1,8,6): (1,7,6) 50.2302 (1,8,5) 46.9363 (1,8,7) 46.9363 (1,9,6) 48.7570
(1,8,7): (1,7,7) 8.93124 (1,8,6) -46.9363 (1,8,8) 7.83359 (1,9,7) 8.04209
(1,8,8): (1,7,8) 1.36630 (1,8,7) -7.83359 (1,8,9) 1.05807 (1,9,8) 1.03142
(1,8,9): (1,7,9) 0.179189 (1,8,8) -1.05807 (1,8,10) 0.120462 (1,9,9) 0.109362
(1,8,10): (1,7,10) 2.259957E-02 (1,8,9) -0.120462 (1,9,10) 1.084205E-02
(1,9,1): (1,8,1) -8.801596E-04 (1,9,2) -3.113005E-03 (1,10,1) 1.194744E-03
(1,9,2): (1,8,2) -1.002697E-02 (1,9,1) 3.113005E-03 (1,9,3) -2.231047E-02 (1,10,2) 1.316415E-02
(1,9,3): (1,8,3) -0.109301 (1,9,2) 2.231047E-02 (1,9,4) -0.135804 (1,10,3) 0.145486
(1,9,4): (1,8,4) -1.03142 (1,9,3) 0.135804 (1,9,5) -0.836749 (1,10,4) 1.44399
(1,9,5): (1,8,5) -8.04209 (1,9,4) 0.836749 (1,9,6) -6.78856 (1,10,5) 11.9310
(1,9,6): (1,8,6) -48.7570 (1,9,5) 6.78856 (1,9,7) 6.78856 (1,10,6) 19.6427
(1,9,7): (1,8,7) -8.04209 (1,9,6) -6.78856 (1,9,8) 0.836745 (1,10,7) 11.9310
(1,9,8): (1,8,8) -1.03142 (1,9,7) -0.836745 (1,9,9) 0.135763 (1,10,8) 1.44400
(1,9,9): (1,8,9) -0.109362 (1,9,8) -0.135763 (1,9,10) 2.193195E-02 (1,10,9) 0.145574
(1,9,10): (1,8,10) -1.084205E-02 (1,9,9) -2.193195E-02 (1,10,10) 1.426404E-02
(1,10,1): (1,9,1) -1.194744E-03 (1,10,2) 8.855978E-03 (1,11,1) -4.424781E-04
(1,10,2): (1,9,2) -1.316415E-02 (1,10,1) -8.855978E-03 (1,10,3) 0.109970 (1,11,2) -6.522442E-03
(1,10,3): (1,9,3) -0.145486 (1,10,2) -0.109970 (1,10,4) 1.15928 (1,11,3) -8.836834E-02
(1,10,4): (1,9,4) -1.44399 (1,10,3) -1.15928 (1,10,5) 9.44371 (1,11,4) -1.01985
(1,10,5): (1,9,5) -11.9310 (1,10,4) -9.44371 (1,10,6) 0.153645 (1,11,5) -9.26584
(1,10,6): (1,9,6) -19.6427 (1,10,5) -0.153645 (1,10,7) -0.153645 (1,11,6) -9.31861
(1,10,7): (1,9,7) -11.9310 (1,10,6) 0.153645 (1,10,8) -9.44370 (1,11,7) -9.26584
(1,10,8): (1,9,8) -1.44400 (1,10,7) 9.44370 (1,10,9) -1.15924 (1,11,8) -1.01985
(1,10,9): (1,9,9) -0.145574 (1,10,8) 1.15924 (1,10,10) -0.109336 (1,11,9) -8.839155E-02
(1,10,10): (1,9,10) -1.426404E-02 (1,10,9) 0.109336 (1,11,10) -6.940758E-03
(1,11,1): (1,10,1) 4.424781E-04 (1,11,2) 2.775872E-03 (1,12,1) -2.212243E-04
(1,11,2): (1,10,2) 6.522442E-03 (1,11,1) -2.775872E-03 (1,11,3) 2.810637E-02 (1,12,2) -2.503050E-03
(1,11,3): (1,10,3) 8.836834E-02 (1,11,2) -2.810637E-02 (1,11,4) 0.226541 (1,12,3) -2.631142E-02
(1,11,4): (1,10,4) 1.01985 (1,11,3) -0.226541 (1,11,5) 1.18568 (1,12,4) -0.224181
(1,11,5): (1,10,5) 9.26584 (1,11,4) -1.18568 (1,11,6) 0.103976 (1,12,5) -1.29472
(1,11,6): (1,10,6) 9.31861 (1,11,5) -0.103976 (1,11,7) -0.103976 (1,12,6) -1.38443
(1,11,7): (1,10,7) 9.26584 (1,11,6) 0.103976 (1,11,8) -1.18568 (1,12,7) -1.29472
(1,11,8): (1,10,8) 1.01985 (1,11,7) 1.18568 (1,11,9) -0.226522 (1,12,8) -0.224182
(1,11,9): (1,10,9) 8.839155E-02 (1,11,8) 0.226522 (1,11,10) -2.786782E-02 (1,12,9) -2.632653E-02
(1,11,10): (1,10,10) 6.940758E-03 (1,11,9) 2.786782E-02 (1,12,10) -2.708116E-03
(1,12,1): (1,11,1) 2.212243E-04 (1,12,2) 4.940406E-04 (1,13,1) -4.917512E-05
(1,12,2): (1,11,2) 2.503050E-03 (1,12,1) -4.940406E-04 (1,12,3) 4.297569E-03 (1,13,2) -4.770516E-04
(1,12,3): (1,11,3) 2.631142E-02 (1,12,2) -4.297569E-03 (1,12,4) 2.866664E-02 (1,13,3) -4.266292E-03
(1,12,4): (1,11,4) 0.224181 (1,12,3) -2.866664E-02 (1,12,5) 0.116275 (1,13,4) -3.001030E-02
(1,12,5): (1,11,5) 1.29472 (1,12,4) -0.116275 (1,12,6) 1.536146E-02 (1,13,5) -0.136420
(1,12,6): (1,11,6) 1.38443 (1,12,5) -1.536146E-02 (1,12,7) -1.536143E-02 (1,13,6) -0.150180
(1,12,7): (1,11,7) 1.29472 (1,12,6) 1.536143E-02 (1,12,8) -0.116274 (1,13,7) -0.136420
(1,12,8): (1,11,8) 0.224182 (1,12,7) 0.116274 (1,12,9) -2.866242E-02 (1,13,8) -3.001059E-02
(1,12,9): (1,11,9) 2.632653E-02 (1,12,8) 2.866242E-02 (1,12,10) -4.249044E-03 (1,13,9) -4.270096E-03
(1,12,10): (1,11,10) 2.708116E-03 (1,12,9) 4.249044E-03 (1,13,10) -5.221119E-04
(1,13,1): (1,12,1) 4.917512E-05 (1,13,2) 6.616403E-05 (1,14,1) -7.750754E-06
(1,13,2): (1,12,2) 4.770516E-04 (1,13,1) -6.616403E-05 (1,13,3) 5.083276E-04 (1,14,2) -6.651400E-05
(1,13,3): (1,12,3) 4.266292E-03 (1,13,2) -5.083276E-04 (1,13,4) 2.922972E-03 (1,14,3) -5.236965E-04
(1,13,4): (1,12,4) 3.001030E-02 (1,13,3) -2.922972E-03 (1,13,5) 9.886288E-03 (1,14,4) -3.186659E-03
(1,13,5): (1,12,5) 0.136420 (1,13,4) -9.886288E-03 (1,13,6) 1.620495E-03 (1,14,5) -1.231009E-02
(1,13,6): (1,12,6) 0.150180 (1,13,5) -1.620495E-03 (1,13,7) -1.620489E-03 (1,14,6) -1.378705E-02
(1,13,7): (1,12,7) 0.136420 (1,13,6) 1.620489E-03 (1,13,8) -9.886227E-03 (1,14,7) -1.231010E-02
(1,13,8): (1,12,8) 3.001059E-02 (1,13,7) 9.886227E-03 (1,13,9) -2.922273E-03 (1,14,8) -3.186714E-03
(1,13,9): (1,12,9) 4.270096E-03 (1,13,8) 2.922273E-03 (1,13,10) -5.010606E-04 (1,14,9) -5.243561E-04
(1,13,10): (1,12,10) 5.221119E-04 (1,13,9) 5.010606E-04 (1,14,10) -7.354455E-05
(1,14,1): (1,13,1) 7.750754E-06 (1,14,2) 7.400785E-06 (1,15,1) -9.807345E-07
(1,14,2): (1,13,2) 6.651400E-05 (1,14,1) -7.400785E-06 (1,14,3) 5.114518E-05 (1,15,2) -7.590263E-06
(1,14,3): (1,13,3) 5.236965E-04 (1,14,2) -5.114518E-05 (1,14,4) 2.600165E-04 (1,15,3) -5.377638E-05
(1,14,4): (1,13,4) 3.186659E-03 (1,14,3) -2.600165E-04 (1,14,5) 7.630756E-04 (1,15,4) -2.912506E-04
(1,14,5): (1,13,5) 1.231009E-02 (1,14,4) -7.630756E-04 (1,14,6) 1.437129E-04 (1,15,5) -9.958424E-04
(1,14,6): (1,13,6) 1.378705E-02 (1,14,5) -1.437129E-04 (1,14,7) -1.437115E-04 (1,15,6) -1.127366E-03
(1,14,7): (1,13,7) 1.231010E-02 (1,14,6) 1.437115E-04 (1,14,8) -7.630663E-04 (1,15,7) -9.958431E-04
(1,14,8): (1,13,8) 3.186714E-03 (1,14,7) 7.630663E-04 (1,14,9) -2.599222E-04 (1,15,8) -2.912589E-04
(1,14,9): (1,13,9) 5.243561E-04 (1,14,8) 2.599222E-04 (1,14,10) -5.024913E-05 (1,15,9) -5.386666E-05
(1,14,10): (1,13,10) 7.354455E-05 (1,14,9) 5.024913E-05 (1,15,10) -8.471522E-06
(1,15,1): (1,14,1) 9.807345E-07 (1,15,2) 7.912562E-07
(1,15,2): (1,14,2) 7.590263E-06 (1,15,1) -7.912562E-07 (1,15,3) 4.959068E-06
(1,15,3): (1,14,3) 5.377638E-05 (1,15,2) -4.959068E-06 (1,15,4) 2.254236E-05
(1,15,4): (1,14,4) 2.912506E-04 (1,15,3) -2.254236E-05 (1,15,5) 5.848551E-05
(1,15,5): (1,14,5) 9.958424E-04 (1,15,4) -5.848551E-05 (1,15,6) 1.219026E-05
(1,15,6): (1,14,6) 1.127366E-03 (1,15,5) -1.219026E-05 (1,15,7) -1.218949E-05
(1,15,7): (1,14,7) 9.958431E-04 (1,15,6) 1.218949E-05 (1,15,8) -5.848373E-05
(1,15,8): (1,14,8) 2.912589E-04 (1,15,7) 5.848373E-05 (1,15,9) -2.253001E-05
(1,15,9): (1,14,9) 5.386666E-05 (1,15,8) 2.253001E-05 (1,15,10) -4.853996E-06
(1,15,10): (1,14,10) 8.471522E-06 (1,15,9) 4.853996E-06

 WEL PACKAGE (WEL-1) FLOW RATES   PERIOD      2   STEP        9
 ----------------------------------------------------------------------------------------
   NUMBER   CELLID                    RATE       NAME                                    
 ----------------------------------------------------------------------------------------
     1      (1,8,6)              -270.00000      WEL                                     
 ----------------------------------------------------------------------------------------




 DRN PACKAGE (DRN-0) FLOW RATES   PERIOD      2   STEP        9
 ----------------------------------------------------------------------------------------
   NUMBER   CELLID                    RATE       NAME                                    
 ----------------------------------------------------------------------------------------
     1      (1,1,1)               0.0000000      SURF                                    
     2      (1,1,2)               0.0000000      SURF                                    
     3      (1,1,3)               0.0000000      SURF                                    
     4      (1,1,4)               0.0000000      SURF                                    
     5      (1,1,5)               0.0000000      SURF                                    
     6      (1,1,6)               0.0000000      SURF                                    
     7      (1,1,7)               0.0000000      SURF                                    
     8      (1,1,8)               0.0000000      SURF                                    
     9      (1,1,9)               0.0000000      SURF                                    
     10     (1,1,10)              0.0000000      SURF                                    
     11     (1,2,1)               0.0000000      SURF                                    
     12     (1,2,2)               0.0000000      SURF                                    
     13     (1,2,3)               0.0000000      SURF                                    
     14     (1,2,4)               0.0000000      SURF                                    
     15     (1,2,5)               0.0000000      SURF                                    
     16     (1,2,6)               0.0000000      SURF                                    
     17     (1,2,7)               0.0000000      SURF                                    
     18     (1,2,8)               0.0000000      SURF                                    
     19     (1,2,9)               0.0000000      SURF                                    
     20     (1,2,10)              0.0000000      SURF                                    
     21     (1,3,1)               0.0000000      SURF                                    
     22     (1,3,2)               0.0000000      SURF                                    
     23     (1,3,3)               0.0000000      SURF                                    
     24     (1,3,4)               0.0000000      SURF                                    
     25     (1,3,5)               0.0000000      SURF                                    
     26     (1,3,6)               0.0000000      SURF                                    
     27     (1,3,7)               0.0000000      SURF                                    
     28     (1,3,8)               0.0000000      SURF                                    
     29     (1,3,9)               0.0000000      SURF                                    
     30     (1,3,10)              0.0000000      SURF                                    
     31     (1,4,1)               0.0000000      SURF                                    
     32     (1,4,2)               0.0000000      SURF                                    
     33     (1,4,3)               0.0000000      SURF                                    
     34     (1,4,4)               0.0000000      SURF                                    
     35     (1,4,5)               0.0000000      SURF                                    
     36     (1,4,6)               0.0000000      SURF                                    
     37     (1,4,7)               0.0000000      SURF                                    
     38     (1,4,8)               0.0000000      SURF                                    
     39     (1,4,9)               0.0000000      SURF                                    
     40     (1,4,10)              0.0000000      SURF                                    
     41     (1,5,1)               0.0000000      SURF                                    
     42     (1,5,2)               0.0000000      SURF                                    
     43     (1,5,3)               0.0000000      SURF                                    
     44     (1,5,4)               0.0000000      SURF                                    
     45     (1,5,5)               0.0000000      SURF                                    
     46     (1,5,6)               0.0000000      SURF                                    
     47     (1,5,7)               0.0000000      SURF                                    
     48     (1,5,8)               0.0000000      SURF                                    
     49     (1,5,9)               0.0000000      SURF                                    
     50     (1,5,10)              0.0000000      SURF                                    
     51     (1,6,1)               0.0000000      SURF                                    
     52     (1,6,2)               0.0000000      SURF                                    
     53     (1,6,3)               0.0000000      SURF                                    
     54     (1,6,4)               0.0000000      SURF                                    
     55     (1,6,5)               0.0000000      SURF                                    
     56     (1,6,6)              -1.49157131E-08 SURF                                    
     57     (1,6,7)               0.0000000      SURF                                    
     58     (1,6,8)               0.0000000      SURF                                    
     59     (1,6,9)               0.0000000      SURF                                    
     60     (1,6,10)              0.0000000      SURF                                    
     61     (1,7,1)               0.0000000      SURF                                    
     62     (1,7,2)               0.0000000      SURF                                    
     63     (1,7,3)               0.0000000      SURF                                    
     64     (1,7,4)               0.0000000      SURF                                    
     65     (1,7,5)               0.0000000      SURF                                    
     66     (1,7,6)               0.0000000      SURF                                    
     67     (1,7,7)               0.0000000      SURF                                    
     68     (1,7,8)               0.0000000      SURF                                    
     69     (1,7,9)               0.0000000      SURF                                    
     70     (1,7,10)              0.0000000      SURF                                    
     71     (1,8,1)               0.0000000      SURF                                    
     72     (1,8,2)               0.0000000      SURF                                    
     73     (1,8,3)               0.0000000      SURF                                    
     74     (1,8,4)               0.0000000      SURF                                    
     75     (1,8,5)               0.0000000      SURF                                    
     76     (1,8,6)               0.0000000      SURF                                    
     77     (1,8,7)               0.0000000      SURF                                    
     78     (1,8,8)               0.0000000      SURF                                    
     79     (1,8,9)               0.0000000      SURF                                    
     80     (1,8,10)              0.0000000      SURF                                    
     81     (1,9,1)               0.0000000      SURF                                    
     82     (1,9,2)               0.0000000      SURF                                    
     83     (1,9,3)               0.0000000      SURF                                    
     84     (1,9,4)               0.0000000      SURF                                    
     85     (1,9,5)               0.0000000      SURF                                    
     86     (1,9,6)               0.0000000      SURF                                    
     87     (1,9,7)               0.0000000      SURF                                    
     88     (1,9,8)               0.0000000      SURF                                    
     89     (1,9,9)               0.0000000      SURF                                    
     90     (1,9,10)              0.0000000      SURF                                    
     91     (1,10,1)              0.0000000      SURF                                    
     92     (1,10,2)              0.0000000      SURF                                    
     93     (1,10,3)              0.0000000      SURF                                    
     94     (1,10,4)              0.0000000      SURF                                    
     95     (1,10,5)              0.0000000      SURF                                    
     96     (1,10,6)             -3.83486622E-07 SURF                                    
     97     (1,10,7)              0.0000000      SURF                                    
     98     (1,10,8)              0.0000000      SURF                                    
     99     (1,10,9)              0.0000000      SURF                                    
    100     (1,10,10)             0.0000000      SURF                                    
    101     (1,11,1)              0.0000000      SURF                                    
    102     (1,11,2)              0.0000000      SURF                                    
    103     (1,11,3)              0.0000000      SURF                                    
    104     (1,11,4)              0.0000000      SURF                                    
    105     (1,11,5)              0.0000000      SURF                                    
    106     (1,11,6)              0.0000000      SURF                                    
    107     (1,11,7)              0.0000000      SURF                                    
    108     (1,11,8)              0.0000000      SURF                                    
    109     (1,11,9)              0.0000000      SURF                                    
    110     (1,11,10)             0.0000000      SURF                                    
    111     (1,12,1)              0.0000000      SURF                                    
    112     (1,12,2)              0.0000000      SURF                                    
    113     (1,12,3)              0.0000000      SURF                                    
    114     (1,12,4)              0.0000000      SURF                                    
    115     (1,12,5)              0.0000000      SURF                                    
    116     (1,12,6)              0.0000000      SURF                                    
    117     (1,12,7)              0.0000000      SURF                                    
    118     (1,12,8)              0.0000000      SURF                                    
    119     (1,12,9)              0.0000000      SURF                                    
    120     (1,12,10)             0.0000000      SURF                                    
    121     (1,13,1)              0.0000000      SURF                                    
    122     (1,13,2)              0.0000000      SURF                                    
    123     (1,13,3)              0.0000000      SURF                                    
    124     (1,13,4)              0.0000000      SURF                                    
    125     (1,13,5)              0.0000000      SURF                                    
    126     (1,13,6)              0.0000000      SURF                                    
    127     (1,13,7)              0.0000000      SURF                                    
    128     (1,13,8)              0.0000000      SURF                                    
    129     (1,13,9)              0.0000000      SURF                                    
    130     (1,13,10)             0.0000000      SURF                                    
    131     (1,14,1)              0.0000000      SURF                                    
    132     (1,14,2)              0.0000000      SURF                                    
    133     (1,14,3)              0.0000000      SURF                                    
    134     (1,14,4)              0.0000000      SURF                                    
    135     (1,14,5)              0.0000000      SURF                                    
    136     (1,14,6)              0.0000000      SURF                                    
    137     (1,14,7)              0.0000000      SURF                                    
    138     (1,14,8)              0.0000000      SURF                                    
    139     (1,14,9)              0.0000000      SURF                                    
    140     (1,14,10)             0.0000000      SURF                                    
    141     (1,15,1)              0.0000000      SURF                                    
    142     (1,15,2)              0.0000000      SURF                                    
    143     (1,15,3)              0.0000000      SURF                                    
    144     (1,15,4)              0.0000000      SURF                                    
    145     (1,15,5)              0.0000000      SURF                                    
    146     (1,15,6)              0.0000000      SURF                                    
    147     (1,15,7)              0.0000000      SURF                                    
    148     (1,15,8)              0.0000000      SURF                                    
    149     (1,15,9)              0.0000000      SURF                                    
    150     (1,15,10)             0.0000000      SURF                                    
 ----------------------------------------------------------------------------------------




 API PACKAGE (MAR) FLOW RATES   PERIOD      2   STEP        9
 -----------------------------------------------
   NUMBER   CELLID                    RATE      
 -----------------------------------------------
     1      (1,6,5)               27.702825     
     2      (1,6,6)               27.702825     
     3      (1,6,7)               27.702825     
     4      (1,10,5)              41.222158     
     5      (1,10,6)              41.222158     
     6      (1,10,7)              41.222158     
 -----------------------------------------------



1
  HEAD IN LAYER   1 AT END OF TIME STEP   9 IN STRESS PERIOD    2
  ---------------------------------------------------------------------------

            1           2           3           4           5           6           7           8           9          10
 ........................................................................................................................
   1   1.8595E-07  1.0478E-06  5.4979E-06  2.1979E-05  5.7178E-05  6.8895E-05  5.7178E-05  2.1981E-05  5.5197E-06  1.2087E-06
   2   1.2746E-06  7.7777E-06  4.4060E-05  1.9045E-04  5.3146E-04  6.3713E-04  5.3146E-04  1.9046E-04  4.4202E-05  8.8926E-06
   3   8.3830E-06  5.5389E-05  3.3941E-04  1.5937E-03  4.8119E-03  5.7218E-03  4.8119E-03  1.5938E-03  3.4029E-04  6.2790E-05
   4   4.5004E-05  3.2425E-04  2.1698E-03  1.1218E-02  3.7372E-02  4.3797E-02  3.7372E-02  1.1219E-02  2.1742E-03  3.6435E-04
   5   1.7751E-04  1.4064E-03  1.0406E-02  6.0392E-02  0.2295      0.2608      0.2295      6.0394E-02  1.0422E-02  1.5660E-03
   6   4.0061E-04  3.5111E-03  2.9157E-02  0.1967      0.9528       1.000      0.9528      0.1967      2.9191E-02  3.8742E-03
   7   9.4496E-05  6.9004E-04  4.3688E-03  1.6915E-02 -1.7615E-02 -0.6848     -1.7615E-02  1.6916E-02  4.3778E-03  7.7460E-04
   8  -1.3532E-04 -1.3613E-03 -1.3523E-02 -0.1195     -0.9123      -6.077     -0.9123     -0.1195     -1.3533E-02 -1.4852E-03
   9  -4.7300E-05 -3.5860E-04 -2.5897E-03 -1.6174E-02 -0.1000     -0.7857     -0.1000     -1.6174E-02 -2.5942E-03 -4.0093E-04
  10   7.2174E-05  9.5769E-04  1.1942E-02  0.1264      0.9860       1.000      0.9860      0.1264      1.1946E-02  1.0253E-03
  11   2.7926E-05  3.0550E-04  3.1153E-03  2.5711E-02  0.1426      0.1529      0.1426      2.5711E-02  3.1172E-03  3.3132E-04
  12   5.8040E-06  5.5208E-05  4.8494E-04  3.3506E-03  1.4961E-02  1.6494E-02  1.4961E-02  3.3507E-03  4.8540E-04  6.0517E-05
  13   8.8644E-07  7.5028E-06  5.8335E-05  3.5062E-04  1.3391E-03  1.5011E-03  1.3391E-03  3.5063E-04  5.8412E-05  8.3060E-06
  14   1.1137E-07  8.5145E-07  5.9660E-06  3.1968E-05  1.0827E-04  1.2265E-04  1.0827E-04  3.1969E-05  5.9765E-06  9.5157E-07
  15   1.3295E-08  9.2421E-08  5.8833E-07  2.8426E-06  8.6911E-06  9.9101E-06  8.6912E-06  2.8428E-06  5.8982E-07  1.0442E-07

 HEAD WILL BE SAVED ON UNIT 1100 AT END OF TIME STEP    9, STRESS PERIOD    2


  VOLUME BUDGET FOR ENTIRE MODEL AT END OF TIME STEP    9, STRESS PERIOD   2
  ---------------------------------------------------------------------------------------------------

     CUMULATIVE VOLUME      L**3       RATES FOR THIS TIME STEP      L**3/T          PACKAGE NAME    
     ------------------                 ------------------------                     ----------------

           IN:                                      IN:
           ---                                      ---
              STO-SS =           8.0725                STO-SS =       6.3983E-02     STORAGE                          
              STO-SY =       20113.0903                STO-SY =         179.6156     STORAGE                          
                 WEL =           0.0000                   WEL =           0.0000     WEL-1                            
                 DRN =           0.0000                   DRN =           0.0000     DRN-0                            
                 API =       20967.7495                   API =         206.7750     MAR                              
                 CHD =       2.0279E-08                   CHD =           0.0000     CHD_0                            

            TOTAL IN =       41088.9123              TOTAL IN =         386.4545

          OUT:                                     OUT:
          ----                                     ----
              STO-SS =           8.6989                STO-SS =       6.0399E-02     STORAGE                          
              STO-SY =       16780.2134                STO-SY =         116.3941     STORAGE                          
                 WEL =       24300.0000                   WEL =         270.0000     WEL-1                            
                 DRN =       2.3441E-05                   DRN =       3.9840E-07     DRN-0                            
                 API =           0.0000                   API =           0.0000     MAR                              
                 CHD =       2.0705E-08                   CHD =           0.0000     CHD_0                            

           TOTAL OUT =       41088.9123             TOTAL OUT =         386.4545

            IN - OUT =       3.7129E-08              IN - OUT =      -2.6319E-09

 PERCENT DISCREPANCY =           0.00     PERCENT DISCREPANCY =          -0.00




         TIME SUMMARY AT END OF TIME STEP    9 IN STRESS PERIOD    2
                    SECONDS     MINUTES      HOURS       DAYS        YEARS
                    -----------------------------------------------------------
   TIME STEP LENGTH 8.64000E+05  14400.      240.00      10.000     2.73785E-02
 STRESS PERIOD TIME 7.77600E+06 1.29600E+05  2160.0      90.000     0.24641    
         TOTAL TIME 7.86240E+06 1.31040E+05  2184.0      91.000     0.24914    


end timestep


start timestep kper="2" kstp="10" mode="normal"

 UBDSV1 SAVING           STO-SS ON UNIT   1099 AT TIME STEP     10, STRESS PERIOD      2
 UBDSV1 SAVING           STO-SY ON UNIT   1099 AT TIME STEP     10, STRESS PERIOD      2
 UBDSV1 SAVING     FLOW-JA-FACE ON UNIT   1099 AT TIME STEP     10, STRESS PERIOD      2
 UBDSV06 SAVING       DATA-SPDIS IN MODEL GWF              PACKAGE NPF             CONNECTED TO MODEL GWF              PACKAGE NPF              ON UNIT   1099 AT TIME STEP     10, STRESS PERIOD      2
 UBDSV06 SAVING              WEL IN MODEL GWF              PACKAGE GWF             CONNECTED TO MODEL GWF              PACKAGE WEL-1            ON UNIT   1099 AT TIME STEP     10, STRESS PERIOD      2
 UBDSV06 SAVING              DRN IN MODEL GWF              PACKAGE GWF             CONNECTED TO MODEL GWF              PACKAGE DRN-0            ON UNIT   1099 AT TIME STEP     10, STRESS PERIOD      2
 UBDSV06 SAVING              API IN MODEL GWF              PACKAGE GWF             CONNECTED TO MODEL GWF              PACKAGE MAR              ON UNIT   1099 AT TIME STEP     10, STRESS PERIOD      2
 UBDSV06 SAVING              CHD IN MODEL GWF              PACKAGE GWF             CONNECTED TO MODEL GWF              PACKAGE CHD_0            ON UNIT   1099 AT TIME STEP     10, STRESS PERIOD      2

    CALCULATED INTERCELL FLOW FOR PERIOD 2 STEP 10
(1,1,1): (1,1,2) 1.555673E-05 (1,2,1) 1.965153E-05
(1,1,2): (1,1,1) -1.555673E-05 (1,1,3) 7.582607E-05 (1,2,2) 1.137779E-04
(1,1,3): (1,1,2) -7.582607E-05 (1,1,4) 2.638960E-04 (1,2,3) 6.127813E-04
(1,1,4): (1,1,3) -2.638960E-04 (1,1,5) 5.309370E-04 (1,2,4) 2.516561E-03
(1,1,5): (1,1,4) -5.309370E-04 (1,1,6) 1.833972E-04 (1,2,5) 6.711761E-03
(1,1,6): (1,1,5) -1.833972E-04 (1,1,7) -1.833912E-04 (1,2,6) 8.056142E-03
(1,1,7): (1,1,6) 1.833912E-04 (1,1,8) -5.308871E-04 (1,2,7) 6.711790E-03
(1,1,8): (1,1,7) 5.308871E-04 (1,1,9) -2.635074E-04 (1,2,8) 2.516830E-03
(1,1,9): (1,1,8) 2.635074E-04 (1,1,10) -7.316367E-05 (1,2,9) 6.150503E-04
(1,1,10): (1,1,9) 7.316367E-05 (1,2,10) 1.308601E-04
(1,2,1): (1,1,1) -1.965153E-05 (1,2,2) 1.096831E-04 (1,3,1) 1.205683E-04
(1,2,2): (1,1,2) -1.137779E-04 (1,2,1) -1.096831E-04 (1,2,3) 5.748293E-04 (1,3,2) 7.527225E-04
(1,2,3): (1,1,3) -6.127813E-04 (1,2,2) -5.748293E-04 (1,2,4) 2.167669E-03 (1,3,3) 4.366134E-03
(1,2,4): (1,1,4) -2.516561E-03 (1,2,3) -2.167669E-03 (1,2,5) 4.726053E-03 (1,3,4) 1.938654E-02
(1,2,5): (1,1,5) -6.711761E-03 (1,2,4) -4.726053E-03 (1,2,6) 1.527691E-03 (1,3,5) 5.566330E-02
(1,2,6): (1,1,6) -8.056142E-03 (1,2,5) -1.527691E-03 (1,2,7) -1.527656E-03 (1,3,6) 6.628635E-02
(1,2,7): (1,1,7) -6.711790E-03 (1,2,6) 1.527656E-03 (1,2,8) -4.725763E-03 (1,3,7) 5.566345E-02
(1,2,8): (1,1,8) -2.516830E-03 (1,2,7) 4.725763E-03 (1,2,9) -2.165281E-03 (1,3,8) 1.938802E-02
(1,2,9): (1,1,9) -6.150503E-04 (1,2,8) 2.165281E-03 (1,2,10) -5.573535E-04 (1,3,9) 4.379314E-03
(1,2,10): (1,1,10) -1.308601E-04 (1,2,9) 5.573535E-04 (1,3,10) 8.584874E-04
(1,3,1): (1,2,1) -1.205683E-04 (1,3,2) 7.418372E-04 (1,4,1) 5.795138E-04
(1,3,2): (1,2,2) -7.527225E-04 (1,3,1) -7.418372E-04 (1,3,3) 4.188234E-03 (1,4,2) 3.945260E-03
(1,3,3): (1,2,3) -4.366134E-03 (1,3,2) -4.188234E-03 (1,3,4) 1.718775E-02 (1,4,3) 2.497466E-02
(1,3,4): (1,2,4) -1.938654E-02 (1,3,3) -1.718775E-02 (1,3,5) 4.099750E-02 (1,4,4) 0.122046
(1,3,5): (1,2,5) -5.566330E-02 (1,3,4) -4.099750E-02 (1,3,6) 1.214500E-02 (1,4,5) 0.386863
(1,3,6): (1,2,6) -6.628635E-02 (1,3,5) -1.214500E-02 (1,3,7) -1.214481E-02 (1,4,6) 0.453699
(1,3,7): (1,2,7) -5.566345E-02 (1,3,6) 1.214481E-02 (1,3,8) -4.099588E-02 (1,4,7) 0.386864
(1,3,8): (1,2,8) -1.938802E-02 (1,3,7) 4.099588E-02 (1,3,9) -1.717365E-02 (1,4,8) 0.122052
(1,3,9): (1,2,9) -4.379314E-03 (1,3,8) 1.717365E-02 (1,3,10) -4.078170E-03 (1,4,9) 2.503416E-02
(1,3,10): (1,2,10) -8.584874E-04 (1,3,9) 4.078170E-03 (1,4,10) 4.458571E-03
(1,4,1): (1,3,1) -5.795138E-04 (1,4,2) 4.107588E-03 (1,5,1) 1.940900E-03
(1,4,2): (1,3,2) -3.945260E-03 (1,4,1) -4.107588E-03 (1,4,3) 2.521769E-02 (1,5,2) 1.461503E-02
(1,4,3): (1,3,3) -2.497466E-02 (1,4,2) -2.521769E-02 (1,4,4) 0.114252 (1,5,3) 0.102884
(1,4,4): (1,3,4) -0.122046 (1,4,3) -0.114252 (1,4,5) 0.305602 (1,5,4) 0.569892
(1,4,5): (1,3,5) -0.386863 (1,4,4) -0.305602 (1,4,6) 7.873377E-02 (1,5,5) 2.10741
(1,4,6): (1,3,6) -0.453699 (1,4,5) -7.873377E-02 (1,4,7) -7.873297E-02 (1,5,6) 2.38640
(1,4,7): (1,3,7) -0.386864 (1,4,6) 7.873297E-02 (1,4,8) -0.305595 (1,5,7) 2.10741
(1,4,8): (1,3,8) -0.122052 (1,4,7) 0.305595 (1,4,9) -0.114184 (1,5,8) 0.569911
(1,4,9): (1,3,9) -2.503416E-02 (1,4,8) 0.114184 (1,4,10) -2.465368E-02 (1,5,9) 0.103069
(1,4,10): (1,3,10) -4.458571E-03 (1,4,9) 2.465368E-02 (1,5,10) 1.635195E-02
(1,5,1): (1,4,1) -1.940900E-03 (1,5,2) 1.678199E-02 (1,6,1) 2.950187E-03
(1,5,2): (1,4,2) -1.461503E-02 (1,5,1) -1.678199E-02 (1,5,3) 0.113496 (1,6,2) 2.553437E-02
(1,5,3): (1,4,3) -0.102884 (1,5,2) -0.113496 (1,5,4) 0.581312 (1,6,3) 0.209953
(1,5,4): (1,4,4) -0.569892 (1,5,3) -0.581312 (1,5,5) 1.83922 (1,6,4) 1.43462
(1,5,5): (1,4,5) -2.10741 (1,5,4) -1.83922 (1,5,6) 0.352493 (1,6,5) 7.78914
(1,5,6): (1,4,6) -2.38640 (1,5,5) -0.352493 (1,5,7) -0.352490 (1,6,6) 7.86827
(1,5,7): (1,4,7) -2.10741 (1,5,6) 0.352490 (1,5,8) -1.83920 (1,6,7) 7.78914
(1,5,8): (1,4,8) -0.569911 (1,5,7) 1.83920 (1,5,9) -0.581077 (1,6,8) 1.43465
(1,5,9): (1,4,9) -0.103069 (1,5,8) 0.581077 (1,5,10) -0.111378 (1,6,9) 0.210208
(1,5,10): (1,4,10) -1.635195E-02 (1,5,9) 0.111378 (1,6,10) 2.820779E-02
(1,6,1): (1,5,1) -2.950187E-03 (1,6,2) 3.936930E-02 (1,7,1) -4.241378E-03
(1,6,2): (1,5,2) -2.553437E-02 (1,6,1) -3.936930E-02 (1,6,3) 0.298076 (1,7,2) -3.596757E-02
(1,6,3): (1,5,3) -0.209953 (1,6,2) -0.298076 (1,6,4) 1.81038 (1,7,3) -0.292650
(1,6,4): (1,5,4) -1.43462 (1,6,3) -1.81038 (1,6,5) 8.21594 (1,7,4) -2.00139
(1,6,5): (1,5,5) -7.78914 (1,6,4) -8.21594 (1,6,6) 0.428465 (1,7,5) -11.0205
(1,6,6): (1,5,6) -7.86827 (1,6,5) -0.428465 (1,6,7) -0.428460 (1,7,6) -19.5260
(1,6,7): (1,5,7) -7.78914 (1,6,6) 0.428460 (1,6,8) -8.21589 (1,7,7) -11.0205
(1,6,8): (1,5,8) -1.43465 (1,6,7) 8.21589 (1,6,9) -1.80991 (1,7,8) -2.00142
(1,6,9): (1,5,9) -0.210208 (1,6,8) 1.80991 (1,6,10) -0.293529 (1,7,9) -0.293025
(1,6,10): (1,5,10) -2.820779E-02 (1,6,9) 0.293529 (1,7,10) -3.980139E-02
(1,7,1): (1,6,1) 4.241378E-03 (1,7,2) 7.642030E-03 (1,8,1) -3.316686E-03
(1,7,2): (1,6,2) 3.596757E-02 (1,7,1) -7.642030E-03 (1,7,3) 4.137997E-02 (1,8,2) -2.740376E-02
(1,7,3): (1,6,3) 0.292650 (1,7,2) -4.137997E-02 (1,7,4) 0.104764 (1,8,3) -0.222264
(1,7,4): (1,6,4) 2.00139 (1,7,3) -0.104764 (1,7,5) -0.599692 (1,8,4) -1.58058
(1,7,5): (1,6,5) 11.0205 (1,7,4) 0.599692 (1,7,6) -7.27468 (1,8,5) -9.70093
(1,7,6): (1,6,6) 19.5260 (1,7,5) 7.27468 (1,7,7) 7.27468 (1,8,6) -52.1345
(1,7,7): (1,6,7) 11.0205 (1,7,6) -7.27468 (1,7,8) 0.599705 (1,8,7) -9.70093
(1,7,8): (1,6,8) 2.00142 (1,7,7) -0.599705 (1,7,9) -0.104638 (1,8,8) -1.58061
(1,7,9): (1,6,9) 0.293025 (1,7,8) 0.104638 (1,7,10) -4.030463E-02 (1,8,9) -0.222564
(1,7,10): (1,6,10) 3.980139E-02 (1,7,9) 4.030463E-02 (1,8,10) -3.039037E-02
(1,8,1): (1,7,1) 3.316686E-03 (1,8,2) -1.644299E-02 (1,9,1) 1.312355E-03
(1,8,2): (1,7,2) 2.740376E-02 (1,8,1) 1.644299E-02 (1,8,3) -0.153363 (1,9,2) 1.399807E-02
(1,8,3): (1,7,3) 0.222264 (1,8,2) 0.153363 (1,8,4) -1.24923 (1,9,3) 0.142210
(1,8,4): (1,7,4) 1.58058 (1,8,3) 1.24923 (1,8,5) -8.64006 (1,9,4) 1.24135
(1,8,5): (1,7,5) 9.70093 (1,8,4) 8.64006 (1,8,6) -48.5684 (1,9,5) 8.92168
(1,8,6): (1,7,6) 52.1345 (1,8,5) 48.5684 (1,8,7) 48.5684 (1,9,6) 50.8278
(1,8,7): (1,7,7) 9.70093 (1,8,6) -48.5684 (1,8,8) 8.64005 (1,9,7) 8.92168
(1,8,8): (1,7,8) 1.58061 (1,8,7) -8.64005 (1,8,9) 1.24908 (1,9,8) 1.24136
(1,8,9): (1,7,9) 0.222564 (1,8,8) -1.24908 (1,8,10) 0.151750 (1,9,9) 0.142304
(1,8,10): (1,7,10) 3.039037E-02 (1,8,9) -0.151750 (1,9,10) 1.520810E-02
(1,9,1): (1,8,1) -1.312355E-03 (1,9,2) -3.756966E-03 (1,10,1) 1.903701E-03
(1,9,2): (1,8,2) -1.399807E-02 (1,9,1) 3.756966E-03 (1,9,3) -2.513717E-02 (1,10,2) 1.932681E-02
(1,9,3): (1,8,3) -0.142210 (1,9,2) 2.513717E-02 (1,9,4) -0.150000 (1,10,3) 0.194453
(1,9,4): (1,8,4) -1.24135 (1,9,3) 0.150000 (1,9,5) -0.980106 (1,10,4) 1.71460
(1,9,5): (1,8,5) -8.92168 (1,9,4) 0.980106 (1,9,6) -7.38624 (1,10,5) 12.0942
(1,9,6): (1,8,6) -50.8278 (1,9,5) 7.38624 (1,9,7) 7.38624 (1,10,6) 20.4979
(1,9,7): (1,8,7) -8.92168 (1,9,6) -7.38624 (1,9,8) 0.980100 (1,10,7) 12.0942
(1,9,8): (1,8,8) -1.24136 (1,9,7) -0.980100 (1,9,9) 0.149943 (1,10,8) 1.71461
(1,9,9): (1,8,9) -0.142304 (1,9,8) -0.149943 (1,9,10) 2.464145E-02 (1,10,9) 0.194602
(1,9,10): (1,8,10) -1.520810E-02 (1,9,9) -2.464145E-02 (1,10,10) 2.106948E-02
(1,10,1): (1,9,1) -1.903701E-03 (1,10,2) 1.366530E-02 (1,11,1) -7.412820E-04
(1,10,2): (1,9,2) -1.932681E-02 (1,10,1) -1.366530E-02 (1,10,3) 0.149917 (1,11,2) -9.694368E-03
(1,10,3): (1,9,3) -0.194453 (1,10,2) -0.149917 (1,10,4) 1.36522 (1,11,3) -0.116575
(1,10,4): (1,9,4) -1.71460 (1,10,3) -1.36522 (1,10,5) 9.16022 (1,11,4) -1.17187
(1,10,5): (1,9,5) -12.0942 (1,10,4) -9.16022 (1,10,6) 0.166675 (1,11,5) -8.91609
(1,10,6): (1,9,6) -20.4979 (1,10,5) -0.166675 (1,10,7) -0.166674 (1,11,6) -8.93557
(1,10,7): (1,9,7) -12.0942 (1,10,6) 0.166674 (1,10,8) -9.16021 (1,11,7) -8.91609
(1,10,8): (1,9,8) -1.71461 (1,10,7) 9.16021 (1,10,9) -1.36514 (1,11,8) -1.17187
(1,10,9): (1,9,9) -0.194602 (1,10,8) 1.36514 (1,10,10) -0.148817 (1,11,9) -0.116618
(1,10,10): (1,9,10) -2.106948E-02 (1,10,9) 0.148817 (1,11,10) -1.038994E-02
(1,11,1): (1,10,1) 7.412820E-04 (1,11,2) 4.711856E-03 (1,12,1) -4.117688E-04
(1,11,2): (1,10,2) 9.694368E-03 (1,11,1) -4.711856E-03 (1,11,3) 4.300167E-02 (1,12,2) -4.206992E-03
(1,11,3): (1,10,3) 0.116575 (1,11,2) -4.300167E-02 (1,11,4) 0.307950 (1,12,3) -3.993064E-02
(1,11,4): (1,10,4) 1.17187 (1,11,3) -0.307950 (1,11,5) 1.40052 (1,12,4) -0.304014
(1,11,5): (1,10,5) 8.91609 (1,11,4) -1.40052 (1,11,6) 0.147715 (1,12,5) -1.54736
(1,11,6): (1,10,6) 8.93557 (1,11,5) -0.147715 (1,11,7) -0.147715 (1,12,6) -1.67211
(1,11,7): (1,10,7) 8.91609 (1,11,6) 0.147715 (1,11,8) -1.40052 (1,12,7) -1.54736
(1,11,8): (1,10,8) 1.17187 (1,11,7) 1.40052 (1,11,9) -0.307913 (1,12,8) -0.304017
(1,11,9): (1,10,9) 0.116618 (1,11,8) 0.307913 (1,11,10) -4.255508E-02 (1,12,9) -3.996129E-02
(1,11,10): (1,10,10) 1.038994E-02 (1,11,9) 4.255508E-02 (1,12,10) -4.585782E-03
(1,12,1): (1,11,1) 4.117688E-04 (1,12,2) 9.166140E-04 (1,13,1) -9.977837E-05
(1,12,2): (1,11,2) 4.206992E-03 (1,12,1) -9.166140E-04 (1,12,3) 7.276918E-03 (1,13,2) -8.831274E-04
(1,12,3): (1,11,3) 3.993064E-02 (1,12,2) -7.276918E-03 (1,12,4) 4.385632E-02 (1,13,3) -7.217007E-03
(1,12,4): (1,11,4) 0.304014 (1,12,3) -4.385632E-02 (1,12,5) 0.158933 (1,13,4) -4.611707E-02
(1,12,5): (1,11,5) 1.54736 (1,12,4) -0.158933 (1,12,6) 2.476436E-02 (1,13,5) -0.189850
(1,12,6): (1,11,6) 1.67211 (1,12,5) -2.476436E-02 (1,12,7) -2.476430E-02 (1,13,6) -0.211745
(1,12,7): (1,11,7) 1.54736 (1,12,6) 2.476430E-02 (1,12,8) -0.158932 (1,13,7) -0.189850
(1,12,8): (1,11,8) 0.304017 (1,12,7) 0.158932 (1,12,9) -4.384704E-02 (1,13,8) -4.611776E-02
(1,12,9): (1,11,9) 3.996129E-02 (1,12,8) 4.384704E-02 (1,12,10) -7.178657E-03 (1,13,9) -7.225326E-03
(1,12,10): (1,11,10) 4.585782E-03 (1,12,9) 7.178657E-03 (1,13,10) -9.738463E-04
(1,13,1): (1,12,1) 9.977837E-05 (1,13,2) 1.332647E-04 (1,14,1) -1.700835E-05
(1,13,2): (1,12,2) 8.831274E-04 (1,13,1) -1.332647E-04 (1,13,3) 9.430349E-04 (1,14,2) -1.341802E-04
(1,13,3): (1,12,3) 7.217007E-03 (1,13,2) -9.430349E-04 (1,13,4) 4.957136E-03 (1,14,3) -9.740397E-04
(1,13,4): (1,12,4) 4.611707E-02 (1,13,3) -4.957136E-03 (1,13,5) 1.524421E-02 (1,14,4) -5.447368E-03
(1,13,5): (1,12,5) 0.189850 (1,13,4) -1.524421E-02 (1,13,6) 2.909586E-03 (1,14,5) -1.938463E-02
(1,13,6): (1,12,6) 0.211745 (1,13,5) -2.909586E-03 (1,13,7) -2.909571E-03 (1,14,6) -2.201003E-02
(1,13,7): (1,12,7) 0.189850 (1,13,6) 2.909571E-03 (1,13,8) -1.524405E-02 (1,14,7) -1.938464E-02
(1,13,8): (1,12,8) 4.611776E-02 (1,13,7) 1.524405E-02 (1,13,9) -4.955491E-03 (1,14,8) -5.447510E-03
(1,13,9): (1,12,9) 7.225326E-03 (1,13,8) 4.955491E-03 (1,13,10) -9.271799E-04 (1,14,9) -9.755888E-04
(1,13,10): (1,12,10) 9.738463E-04 (1,13,9) 9.271799E-04 (1,14,10) -1.494858E-04
(1,14,1): (1,13,1) 1.700835E-05 (1,14,2) 1.609288E-05 (1,15,1) -2.311027E-06
(1,14,2): (1,13,2) 1.341802E-04 (1,14,1) -1.609288E-05 (1,14,3) 1.031756E-04 (1,15,2) -1.654390E-05
(1,14,3): (1,13,3) 9.740397E-04 (1,14,2) -1.031756E-04 (1,14,4) 4.838295E-04 (1,15,3) -1.088466E-04
(1,14,4): (1,13,4) 5.447368E-03 (1,14,3) -4.838295E-04 (1,14,5) 1.307522E-03 (1,15,4) -5.467566E-04
(1,14,5): (1,13,5) 1.938463E-02 (1,14,4) -1.307522E-03 (1,14,6) 2.846871E-04 (1,15,5) -1.743446E-03
(1,14,6): (1,13,6) 2.201003E-02 (1,14,5) -2.846871E-04 (1,14,7) -2.846841E-04 (1,15,6) -2.001505E-03
(1,14,7): (1,13,7) 1.938464E-02 (1,14,6) 2.846841E-04 (1,14,8) -1.307498E-03 (1,15,7) -1.743448E-03
(1,14,8): (1,13,8) 5.447510E-03 (1,14,7) 1.307498E-03 (1,14,9) -4.835926E-04 (1,15,8) -5.467789E-04
(1,14,9): (1,13,9) 9.755888E-04 (1,14,8) 4.835926E-04 (1,14,10) -1.010774E-04 (1,15,9) -1.090731E-04
(1,14,10): (1,13,10) 1.494858E-04 (1,14,9) 1.010774E-04 (1,15,10) -1.860382E-05
(1,15,1): (1,14,1) 2.311027E-06 (1,15,2) 1.860010E-06
(1,15,2): (1,14,2) 1.654390E-05 (1,15,1) -1.860010E-06 (1,15,3) 1.087294E-05
(1,15,3): (1,14,3) 1.088466E-04 (1,15,2) -1.087294E-05 (1,15,4) 4.591974E-05
(1,15,4): (1,14,4) 5.467566E-04 (1,15,3) -4.591974E-05 (1,15,5) 1.108378E-04
(1,15,5): (1,14,5) 1.743446E-03 (1,15,4) -1.108378E-04 (1,15,6) 2.663299E-05
(1,15,6): (1,14,6) 2.001505E-03 (1,15,5) -2.663299E-05 (1,15,7) -2.663197E-05
(1,15,7): (1,14,7) 1.743448E-03 (1,15,6) 2.663197E-05 (1,15,8) -1.108337E-04
(1,15,8): (1,14,8) 5.467789E-04 (1,15,7) 1.108337E-04 (1,15,9) -4.588702E-05
(1,15,9): (1,14,9) 1.090731E-04 (1,15,8) 4.588702E-05 (1,15,10) -1.060812E-05
(1,15,10): (1,14,10) 1.860382E-05 (1,15,9) 1.060812E-05

 WEL PACKAGE (WEL-1) FLOW RATES   PERIOD      2   STEP       10
 ----------------------------------------------------------------------------------------
   NUMBER   CELLID                    RATE       NAME                                    
 ----------------------------------------------------------------------------------------
     1      (1,8,6)              -270.00000      WEL                                     
 ----------------------------------------------------------------------------------------




 DRN PACKAGE (DRN-0) FLOW RATES   PERIOD      2   STEP       10
 ----------------------------------------------------------------------------------------
   NUMBER   CELLID                    RATE       NAME                                    
 ----------------------------------------------------------------------------------------
     1      (1,1,1)               0.0000000      SURF                                    
     2      (1,1,2)               0.0000000      SURF                                    
     3      (1,1,3)               0.0000000      SURF                                    
     4      (1,1,4)               0.0000000      SURF                                    
     5      (1,1,5)               0.0000000      SURF                                    
     6      (1,1,6)               0.0000000      SURF                                    
     7      (1,1,7)               0.0000000      SURF                                    
     8      (1,1,8)               0.0000000      SURF                                    
     9      (1,1,9)               0.0000000      SURF                                    
     10     (1,1,10)              0.0000000      SURF                                    
     11     (1,2,1)               0.0000000      SURF                                    
     12     (1,2,2)               0.0000000      SURF                                    
     13     (1,2,3)               0.0000000      SURF                                    
     14     (1,2,4)               0.0000000      SURF                                    
     15     (1,2,5)               0.0000000      SURF                                    
     16     (1,2,6)               0.0000000      SURF                                    
     17     (1,2,7)               0.0000000      SURF                                    
     18     (1,2,8)               0.0000000      SURF                                    
     19     (1,2,9)               0.0000000      SURF                                    
     20     (1,2,10)              0.0000000      SURF                                    
     21     (1,3,1)               0.0000000      SURF                                    
     22     (1,3,2)               0.0000000      SURF                                    
     23     (1,3,3)               0.0000000      SURF                                    
     24     (1,3,4)               0.0000000      SURF                                    
     25     (1,3,5)               0.0000000      SURF                                    
     26     (1,3,6)               0.0000000      SURF                                    
     27     (1,3,7)               0.0000000      SURF                                    
     28     (1,3,8)               0.0000000      SURF                                    
     29     (1,3,9)               0.0000000      SURF                                    
     30     (1,3,10)              0.0000000      SURF                                    
     31     (1,4,1)               0.0000000      SURF                                    
     32     (1,4,2)               0.0000000      SURF                                    
     33     (1,4,3)               0.0000000      SURF                                    
     34     (1,4,4)               0.0000000      SURF                                    
     35     (1,4,5)               0.0000000      SURF                                    
     36     (1,4,6)               0.0000000      SURF                                    
     37     (1,4,7)               0.0000000      SURF                                    
     38     (1,4,8)               0.0000000      SURF                                    
     39     (1,4,9)               0.0000000      SURF                                    
     40     (1,4,10)              0.0000000      SURF                                    
     41     (1,5,1)               0.0000000      SURF                                    
     42     (1,5,2)               0.0000000      SURF                                    
     43     (1,5,3)               0.0000000      SURF                                    
     44     (1,5,4)               0.0000000      SURF                                    
     45     (1,5,5)               0.0000000      SURF                                    
     46     (1,5,6)               0.0000000      SURF                                    
     47     (1,5,7)               0.0000000      SURF                                    
     48     (1,5,8)               0.0000000      SURF                                    
     49     (1,5,9)               0.0000000      SURF                                    
     50     (1,5,10)              0.0000000      SURF                                    
     51     (1,6,1)               0.0000000      SURF                                    
     52     (1,6,2)               0.0000000      SURF                                    
     53     (1,6,3)               0.0000000      SURF                                    
     54     (1,6,4)               0.0000000      SURF                                    
     55     (1,6,5)               0.0000000      SURF                                    
     56     (1,6,6)              -1.35187292E-08 SURF                                    
     57     (1,6,7)               0.0000000      SURF                                    
     58     (1,6,8)               0.0000000      SURF                                    
     59     (1,6,9)               0.0000000      SURF                                    
     60     (1,6,10)              0.0000000      SURF                                    
     61     (1,7,1)               0.0000000      SURF                                    
     62     (1,7,2)               0.0000000      SURF                                    
     63     (1,7,3)               0.0000000      SURF                                    
     64     (1,7,4)               0.0000000      SURF                                    
     65     (1,7,5)               0.0000000      SURF                                    
     66     (1,7,6)               0.0000000      SURF                                    
     67     (1,7,7)               0.0000000      SURF                                    
     68     (1,7,8)               0.0000000      SURF                                    
     69     (1,7,9)               0.0000000      SURF                                    
     70     (1,7,10)              0.0000000      SURF                                    
     71     (1,8,1)               0.0000000      SURF                                    
     72     (1,8,2)               0.0000000      SURF                                    
     73     (1,8,3)               0.0000000      SURF                                    
     74     (1,8,4)               0.0000000      SURF                                    
     75     (1,8,5)               0.0000000      SURF                                    
     76     (1,8,6)               0.0000000      SURF                                    
     77     (1,8,7)               0.0000000      SURF                                    
     78     (1,8,8)               0.0000000      SURF                                    
     79     (1,8,9)               0.0000000      SURF                                    
     80     (1,8,10)              0.0000000      SURF                                    
     81     (1,9,1)               0.0000000      SURF                                    
     82     (1,9,2)               0.0000000      SURF                                    
     83     (1,9,3)               0.0000000      SURF                                    
     84     (1,9,4)               0.0000000      SURF                                    
     85     (1,9,5)               0.0000000      SURF                                    
     86     (1,9,6)               0.0000000      SURF                                    
     87     (1,9,7)               0.0000000      SURF                                    
     88     (1,9,8)               0.0000000      SURF                                    
     89     (1,9,9)               0.0000000      SURF                                    
     90     (1,9,10)              0.0000000      SURF                                    
     91     (1,10,1)              0.0000000      SURF                                    
     92     (1,10,2)              0.0000000      SURF                                    
     93     (1,10,3)              0.0000000      SURF                                    
     94     (1,10,4)              0.0000000      SURF                                    
     95     (1,10,5)              0.0000000      SURF                                    
     96     (1,10,6)             -3.51734343E-07 SURF                                    
     97     (1,10,7)              0.0000000      SURF                                    
     98     (1,10,8)              0.0000000      SURF                                    
     99     (1,10,9)              0.0000000      SURF                                    
    100     (1,10,10)             0.0000000      SURF                                    
    101     (1,11,1)              0.0000000      SURF                                    
    102     (1,11,2)              0.0000000      SURF                                    
    103     (1,11,3)              0.0000000      SURF                                    
    104     (1,11,4)              0.0000000      SURF                                    
    105     (1,11,5)              0.0000000      SURF                                    
    106     (1,11,6)              0.0000000      SURF                                    
    107     (1,11,7)              0.0000000      SURF                                    
    108     (1,11,8)              0.0000000      SURF                                    
    109     (1,11,9)              0.0000000      SURF                                    
    110     (1,11,10)             0.0000000      SURF                                    
    111     (1,12,1)              0.0000000      SURF                                    
    112     (1,12,2)              0.0000000      SURF                                    
    113     (1,12,3)              0.0000000      SURF                                    
    114     (1,12,4)              0.0000000      SURF                                    
    115     (1,12,5)              0.0000000      SURF                                    
    116     (1,12,6)              0.0000000      SURF                                    
    117     (1,12,7)              0.0000000      SURF                                    
    118     (1,12,8)              0.0000000      SURF                                    
    119     (1,12,9)              0.0000000      SURF                                    
    120     (1,12,10)             0.0000000      SURF                                    
    121     (1,13,1)              0.0000000      SURF                                    
    122     (1,13,2)              0.0000000      SURF                                    
    123     (1,13,3)              0.0000000      SURF                                    
    124     (1,13,4)              0.0000000      SURF                                    
    125     (1,13,5)              0.0000000      SURF                                    
    126     (1,13,6)              0.0000000      SURF                                    
    127     (1,13,7)              0.0000000      SURF                                    
    128     (1,13,8)              0.0000000      SURF                                    
    129     (1,13,9)              0.0000000      SURF                                    
    130     (1,13,10)             0.0000000      SURF                                    
    131     (1,14,1)              0.0000000      SURF                                    
    132     (1,14,2)              0.0000000      SURF                                    
    133     (1,14,3)              0.0000000      SURF                                    
    134     (1,14,4)              0.0000000      SURF                                    
    135     (1,14,5)              0.0000000      SURF                                    
    136     (1,14,6)              0.0000000      SURF                                    
    137     (1,14,7)              0.0000000      SURF                                    
    138     (1,14,8)              0.0000000      SURF                                    
    139     (1,14,9)              0.0000000      SURF                                    
    140     (1,14,10)             0.0000000      SURF                                    
    141     (1,15,1)              0.0000000      SURF                                    
    142     (1,15,2)              0.0000000      SURF                                    
    143     (1,15,3)              0.0000000      SURF                                    
    144     (1,15,4)              0.0000000      SURF                                    
    145     (1,15,5)              0.0000000      SURF                                    
    146     (1,15,6)              0.0000000      SURF                                    
    147     (1,15,7)              0.0000000      SURF                                    
    148     (1,15,8)              0.0000000      SURF                                    
    149     (1,15,9)              0.0000000      SURF                                    
    150     (1,15,10)             0.0000000      SURF                                    
 ----------------------------------------------------------------------------------------




 API PACKAGE (MAR) FLOW RATES   PERIOD      2   STEP       10
 -----------------------------------------------
   NUMBER   CELLID                    RATE      
 -----------------------------------------------
     1      (1,6,5)               28.251179     
     2      (1,6,6)               28.251179     
     3      (1,6,7)               28.251179     
     4      (1,10,5)              29.766838     
     5      (1,10,6)              29.766838     
     6      (1,10,7)              29.766838     
 -----------------------------------------------



1
  HEAD IN LAYER   1 AT END OF TIME STEP  10 IN STRESS PERIOD    2
  ---------------------------------------------------------------------------

            1           2           3           4           5           6           7           8           9          10
 ........................................................................................................................
   1   3.6190E-07  1.9176E-06  9.5002E-06  3.5890E-05  8.8983E-05  1.0732E-04  8.8983E-05  3.5895E-05  9.5446E-06  2.2283E-06
   2   2.3271E-06  1.3295E-05  7.0778E-05  2.8754E-04  7.6011E-04  9.1286E-04  7.6011E-04  2.8757E-04  7.1049E-05  1.5314E-05
   3   1.4384E-05  8.8567E-05  5.0737E-04  2.2258E-03  6.3229E-03  7.5365E-03  6.3229E-03  2.2259E-03  5.0896E-04  1.0116E-04
   4   7.2335E-05  4.8307E-04  3.0041E-03  1.4413E-02  4.4837E-02  5.2669E-02  4.4837E-02  1.4414E-02  3.0116E-03  5.4699E-04
   5   2.6642E-04  1.9443E-03  1.3279E-02  7.1000E-02  0.2504      0.2847      0.2504      7.1003E-02  1.3305E-02  2.1818E-03
   6   5.6142E-04  4.4966E-03  3.4203E-02  0.2115      0.9610       1.000      0.9610      0.2115      3.4254E-02  5.0012E-03
   7   1.3731E-04  9.0144E-04  5.0374E-03  1.5498E-02 -4.4379E-02 -0.7751     -4.4379E-02  1.5499E-02  5.0515E-03  1.0231E-03
   8  -1.9436E-04 -1.8387E-03 -1.7178E-02 -0.1423      -1.019      -6.427      -1.019     -0.1423     -1.7194E-02 -2.0157E-03
   9  -6.3120E-05 -4.3882E-04 -2.9526E-03 -1.7957E-02 -0.1161     -0.8634     -0.1161     -1.7958E-02 -2.9591E-03 -4.9479E-04
  10   1.2725E-04  1.4936E-03  1.6461E-02  0.1510      0.9848       1.000      0.9848      0.1510      1.6469E-02  1.6118E-03
  11   5.3121E-05  5.2428E-04  4.8224E-03  3.5508E-02  0.1732      0.1877      0.1732      3.5509E-02  4.8264E-03  5.7299E-04
  12   1.1944E-05  1.0360E-04  8.3124E-04  5.2146E-03  2.1074E-02  2.3545E-02  2.1074E-02  5.2147E-03  8.3225E-04  1.1444E-04
  13   1.9661E-06  1.5293E-05  1.0959E-04  6.0528E-04  2.1294E-03  2.4203E-03  2.1294E-03  6.0530E-04  1.0978E-04  1.7059E-05
  14   2.6524E-07  1.8745E-06  1.2192E-05  6.0575E-05  1.9132E-04  2.1979E-04  1.9132E-04  6.0577E-05  1.2219E-05  2.1108E-06
  15   3.4140E-08  2.2014E-07  1.3074E-06  5.8994E-06  1.6983E-05  1.9646E-05  1.6983E-05  5.8999E-06  1.3112E-06  2.5041E-07

 HEAD WILL BE SAVED ON UNIT 1100 AT END OF TIME STEP   10, STRESS PERIOD    2


  VOLUME BUDGET FOR ENTIRE MODEL AT END OF TIME STEP   10, STRESS PERIOD   2
  ---------------------------------------------------------------------------------------------------

     CUMULATIVE VOLUME      L**3       RATES FOR THIS TIME STEP      L**3/T          PACKAGE NAME    
     ------------------                 ------------------------                     ----------------

           IN:                                      IN:
           ---                                      ---
              STO-SS =           8.6996                STO-SS =       6.2707E-02     STORAGE                          
              STO-SY =       21873.0699                STO-SY =         175.9980     STORAGE                          
                 WEL =           0.0000                   WEL =           0.0000     WEL-1                            
                 DRN =           0.0000                   DRN =           0.0000     DRN-0                            
                 API =       22708.2900                   API =         174.0541     MAR                              
                 CHD =       2.0279E-08                   CHD =           0.0000     CHD_0                            

            TOTAL IN =       44590.0595              TOTAL IN =         350.1147

          OUT:                                     OUT:
          ----                                     ----
              STO-SS =           9.1058                STO-SS =       4.0686E-02     STORAGE                          
              STO-SY =       17580.9537                STO-SY =          80.0740     STORAGE                          
                 WEL =       27000.0000                   WEL =         270.0000     WEL-1                            
                 DRN =       2.7093E-05                   DRN =       3.6525E-07     DRN-0                            
                 API =           0.0000                   API =           0.0000     MAR                              
                 CHD =       2.0705E-08                   CHD =           0.0000     CHD_0                            

           TOTAL OUT =       44590.0595             TOTAL OUT =         350.1147

            IN - OUT =       1.0943E-08              IN - OUT =      -2.6195E-09

 PERCENT DISCREPANCY =           0.00     PERCENT DISCREPANCY =          -0.00




         TIME SUMMARY AT END OF TIME STEP   10 IN STRESS PERIOD    2
                    SECONDS     MINUTES      HOURS       DAYS        YEARS
                    -----------------------------------------------------------
   TIME STEP LENGTH 8.64000E+05  14400.      240.00      10.000     2.73785E-02
 STRESS PERIOD TIME 8.64000E+06 1.44000E+05  2400.0      100.00     0.27379    
         TOTAL TIME 8.72640E+06 1.45440E+05  2424.0      101.00     0.27652    


end timestep


start timestep kper="2" kstp="11" mode="normal"

 UBDSV1 SAVING           STO-SS ON UNIT   1099 AT TIME STEP     11, STRESS PERIOD      2
 UBDSV1 SAVING           STO-SY ON UNIT   1099 AT TIME STEP     11, STRESS PERIOD      2
 UBDSV1 SAVING     FLOW-JA-FACE ON UNIT   1099 AT TIME STEP     11, STRESS PERIOD      2
 UBDSV06 SAVING       DATA-SPDIS IN MODEL GWF              PACKAGE NPF             CONNECTED TO MODEL GWF              PACKAGE NPF              ON UNIT   1099 AT TIME STEP     11, STRESS PERIOD      2
 UBDSV06 SAVING              WEL IN MODEL GWF              PACKAGE GWF             CONNECTED TO MODEL GWF              PACKAGE WEL-1            ON UNIT   1099 AT TIME STEP     11, STRESS PERIOD      2
 UBDSV06 SAVING              DRN IN MODEL GWF              PACKAGE GWF             CONNECTED TO MODEL GWF              PACKAGE DRN-0            ON UNIT   1099 AT TIME STEP     11, STRESS PERIOD      2
 UBDSV06 SAVING              API IN MODEL GWF              PACKAGE GWF             CONNECTED TO MODEL GWF              PACKAGE MAR              ON UNIT   1099 AT TIME STEP     11, STRESS PERIOD      2
 UBDSV06 SAVING              CHD IN MODEL GWF              PACKAGE GWF             CONNECTED TO MODEL GWF              PACKAGE CHD_0            ON UNIT   1099 AT TIME STEP     11, STRESS PERIOD      2

    CALCULATED INTERCELL FLOW FOR PERIOD 2 STEP 11
(1,1,1): (1,1,2) 2.643041E-05 (1,2,1) 3.338403E-05
(1,1,2): (1,1,1) -2.643041E-05 (1,1,3) 1.220887E-04 (1,2,2) 1.817384E-04
(1,1,3): (1,1,2) -1.220887E-04 (1,1,4) 4.011357E-04 (1,2,3) 9.240633E-04
(1,1,4): (1,1,3) -4.011357E-04 (1,1,5) 7.643845E-04 (1,2,4) 3.586005E-03
(1,1,5): (1,1,4) -7.643845E-04 (1,1,6) 2.724473E-04 (1,2,5) 9.112371E-03
(1,1,6): (1,1,5) -2.724473E-04 (1,1,7) -2.724341E-04 (1,2,6) 1.094716E-02
(1,1,7): (1,1,6) 2.724341E-04 (1,1,8) -7.642848E-04 (1,2,7) 9.112427E-03
(1,1,8): (1,1,7) 7.642848E-04 (1,1,9) -4.004003E-04 (1,2,8) 3.586509E-03
(1,1,9): (1,1,8) 4.004003E-04 (1,1,10) -1.173095E-04 (1,2,9) 9.280983E-04
(1,1,10): (1,1,9) 1.173095E-04 (1,2,10) 2.105223E-04
(1,2,1): (1,1,1) -3.338403E-05 (1,2,2) 1.747848E-04 (1,3,1) 1.932009E-04
(1,2,2): (1,1,2) -1.817384E-04 (1,2,1) -1.747848E-04 (1,2,3) 8.644131E-04 (1,3,2) 1.129393E-03
(1,2,3): (1,1,3) -9.240633E-04 (1,2,2) -8.644131E-04 (1,2,4) 3.063063E-03 (1,3,3) 6.157165E-03
(1,2,4): (1,1,4) -3.586005E-03 (1,2,3) -3.063063E-03 (1,2,5) 6.290594E-03 (1,3,4) 2.570578E-02
(1,2,5): (1,1,5) -9.112371E-03 (1,2,4) -6.290594E-03 (1,2,6) 2.107075E-03 (1,3,5) 6.994374E-02
(1,2,6): (1,1,6) -1.094716E-02 (1,2,5) -2.107075E-03 (1,2,7) -2.107005E-03 (1,3,6) 8.340007E-02
(1,2,7): (1,1,7) -9.112427E-03 (1,2,6) 2.107005E-03 (1,2,8) -6.290047E-03 (1,3,7) 6.994402E-02
(1,2,8): (1,1,8) -3.586509E-03 (1,2,7) 6.290047E-03 (1,2,9) -3.058797E-03 (1,3,8) 2.570840E-02
(1,2,9): (1,1,9) -9.280983E-04 (1,2,8) 3.058797E-03 (1,2,10) -8.348849E-04 (1,3,9) 6.179357E-03
(1,2,10): (1,1,10) -2.105223E-04 (1,2,9) 8.348849E-04 (1,3,10) 1.297504E-03
(1,3,1): (1,2,1) -1.932009E-04 (1,3,2) 1.110977E-03 (1,4,1) 8.702002E-04
(1,3,2): (1,2,2) -1.129393E-03 (1,3,1) -1.110977E-03 (1,3,3) 5.892172E-03 (1,4,2) 5.522500E-03
(1,3,3): (1,2,3) -6.157165E-03 (1,3,2) -5.892172E-03 (1,3,4) 2.261107E-02 (1,4,3) 3.270409E-02
(1,3,4): (1,2,4) -2.570578E-02 (1,3,3) -2.261107E-02 (1,3,5) 5.051998E-02 (1,4,4) 0.149525
(1,3,5): (1,2,5) -6.994374E-02 (1,3,4) -5.051998E-02 (1,3,6) 1.555430E-02 (1,4,5) 0.446890
(1,3,6): (1,2,6) -8.340007E-02 (1,3,5) -1.555430E-02 (1,3,7) -1.555394E-02 (1,4,6) 0.524594
(1,3,7): (1,2,7) -6.994402E-02 (1,3,6) 1.555394E-02 (1,3,8) -5.051709E-02 (1,4,7) 0.446891
(1,3,8): (1,2,8) -2.570840E-02 (1,3,7) 5.051709E-02 (1,3,9) -2.258723E-02 (1,4,8) 0.149536
(1,3,9): (1,2,9) -6.179357E-03 (1,3,8) 2.258723E-02 (1,3,10) -5.716716E-03 (1,4,9) 3.279837E-02
(1,3,10): (1,2,10) -1.297504E-03 (1,3,9) 5.716716E-03 (1,4,10) 6.287149E-03
(1,4,1): (1,3,1) -8.702002E-04 (1,4,2) 5.763288E-03 (1,5,1) 2.711417E-03
(1,4,2): (1,3,2) -5.522500E-03 (1,4,1) -5.763288E-03 (1,4,3) 3.307386E-02 (1,5,2) 1.894305E-02
(1,4,3): (1,3,3) -3.270409E-02 (1,4,2) -3.307386E-02 (1,4,4) 0.139420 (1,5,3) 0.124178
(1,4,4): (1,3,4) -0.149525 (1,4,3) -0.139420 (1,4,5) 0.347593 (1,5,4) 0.641104
(1,4,5): (1,3,5) -0.446890 (1,4,4) -0.347593 (1,4,6) 9.292866E-02 (1,5,5) 2.23253
(1,4,6): (1,3,6) -0.524594 (1,4,5) -9.292866E-02 (1,4,7) -9.292722E-02 (1,5,6) 2.52231
(1,4,7): (1,3,7) -0.446891 (1,4,6) 9.292722E-02 (1,4,8) -0.347581 (1,5,7) 2.23253
(1,4,8): (1,3,8) -0.149536 (1,4,7) 0.347581 (1,4,9) -0.139313 (1,5,8) 0.641133
(1,4,9): (1,3,9) -3.279837E-02 (1,4,8) 0.139313 (1,4,10) -3.222779E-02 (1,5,9) 0.124453
(1,4,10): (1,3,10) -6.287149E-03 (1,4,9) 3.222779E-02 (1,5,10) 2.135060E-02
(1,5,1): (1,4,1) -2.711417E-03 (1,5,2) 2.199541E-02 (1,6,1) 3.737529E-03
(1,5,2): (1,4,2) -1.894305E-02 (1,5,1) -2.199541E-02 (1,5,3) 0.138324 (1,6,2) 2.990822E-02
(1,5,3): (1,4,3) -0.124178 (1,5,2) -0.138324 (1,5,4) 0.656423 (1,6,3) 0.228667
(1,5,4): (1,4,4) -0.641104 (1,5,3) -0.656423 (1,5,5) 1.93455 (1,6,4) 1.46436
(1,5,5): (1,4,5) -2.23253 (1,5,4) -1.93455 (1,5,6) 0.377021 (1,6,5) 7.68096
(1,5,6): (1,4,6) -2.52231 (1,5,5) -0.377021 (1,5,7) -0.377017 (1,6,6) 7.62900
(1,5,7): (1,4,7) -2.23253 (1,5,6) 0.377017 (1,5,8) -1.93452 (1,6,7) 7.68096
(1,5,8): (1,4,8) -0.641133 (1,5,7) 1.93452 (1,5,9) -0.656068 (1,6,8) 1.46439
(1,5,9): (1,4,9) -0.124453 (1,5,8) 0.656068 (1,5,10) -0.135342 (1,6,9) 0.229011
(1,5,10): (1,4,10) -2.135060E-02 (1,5,9) 0.135342 (1,6,10) 3.327017E-02
(1,6,1): (1,5,1) -3.737529E-03 (1,6,2) 4.817088E-02 (1,7,1) -5.659437E-03
(1,6,2): (1,5,2) -2.990822E-02 (1,6,1) -4.817088E-02 (1,6,3) 0.337297 (1,7,2) -4.450637E-02
(1,6,3): (1,5,3) -0.228667 (1,6,2) -0.337297 (1,6,4) 1.89721 (1,7,3) -0.337728
(1,6,4): (1,5,4) -1.46436 (1,6,3) -1.89721 (1,6,5) 8.17630 (1,7,4) -2.16780
(1,6,5): (1,5,5) -7.68096 (1,6,4) -8.17630 (1,6,6) 0.329467 (1,7,5) -11.4522
(1,6,6): (1,5,6) -7.62900 (1,6,5) -0.329467 (1,6,7) -0.329459 (1,7,6) -20.4930
(1,6,7): (1,5,7) -7.68096 (1,6,6) 0.329459 (1,6,8) -8.17623 (1,7,7) -11.4522
(1,6,8): (1,5,8) -1.46439 (1,6,7) 8.17623 (1,6,9) -1.89654 (1,7,8) -2.16785
(1,6,9): (1,5,9) -0.229011 (1,6,8) 1.89654 (1,6,10) -0.331281 (1,7,9) -0.338260
(1,6,10): (1,5,10) -3.327017E-02 (1,6,9) 0.331281 (1,7,10) -4.958493E-02
(1,7,1): (1,6,1) 5.659437E-03 (1,7,2) 9.322524E-03 (1,8,1) -4.579633E-03
(1,7,2): (1,6,2) 4.450637E-02 (1,7,1) -9.322524E-03 (1,7,3) 4.407639E-02 (1,8,2) -3.523835E-02
(1,7,3): (1,6,3) 0.337728 (1,7,2) -4.407639E-02 (1,7,4) 7.186278E-02 (1,8,3) -0.267607
(1,7,4): (1,6,4) 2.16780 (1,7,3) -7.186278E-02 (1,7,5) -0.867121 (1,8,4) -1.78785
(1,7,5): (1,6,5) 11.4522 (1,7,4) 0.867121 (1,7,6) -7.83267 (1,8,5) -10.3934
(1,7,6): (1,6,6) 20.4930 (1,7,5) 7.83267 (1,7,7) 7.83268 (1,8,6) -53.7478
(1,7,7): (1,6,7) 11.4522 (1,7,6) -7.83268 (1,7,8) 0.867142 (1,8,7) -10.3934
(1,7,8): (1,6,8) 2.16785 (1,7,7) -0.867142 (1,7,9) -7.167685E-02 (1,8,8) -1.78789
(1,7,9): (1,6,9) 0.338260 (1,7,8) 7.167685E-02 (1,7,10) -4.262604E-02 (1,8,9) -0.268047
(1,7,10): (1,6,10) 4.958493E-02 (1,7,9) 4.262604E-02 (1,8,10) -3.933269E-02
(1,8,1): (1,7,1) 4.579633E-03 (1,8,2) -2.133280E-02 (1,9,1) 1.884731E-03
(1,8,2): (1,7,2) 3.523835E-02 (1,8,1) 2.133280E-02 (1,8,3) -0.188128 (1,9,2) 1.883799E-02
(1,8,3): (1,7,3) 0.267607 (1,8,2) 0.188128 (1,8,4) -1.44328 (1,9,3) 0.178844
(1,8,4): (1,7,4) 1.78785 (1,8,3) 1.44328 (1,8,5) -9.39284 (1,9,4) 1.45168
(1,8,5): (1,7,5) 10.3934 (1,8,4) 9.39284 (1,8,6) -49.9396 (1,9,5) 9.70754
(1,8,6): (1,7,6) 53.7478 (1,8,5) 49.9396 (1,8,7) 49.9396 (1,9,6) 52.5915
(1,8,7): (1,7,7) 10.3934 (1,8,6) -49.9396 (1,8,8) 9.39282 (1,9,7) 9.70754
(1,8,8): (1,7,8) 1.78789 (1,8,7) -9.39282 (1,8,9) 1.44307 (1,9,8) 1.45169
(1,8,9): (1,7,9) 0.268047 (1,8,8) -1.44307 (1,8,10) 0.185919 (1,9,9) 0.178987
(1,8,10): (1,7,10) 3.933269E-02 (1,8,9) -0.185919 (1,9,10) 2.056774E-02
(1,9,1): (1,8,1) -1.884731E-03 (1,9,2) -4.379120E-03 (1,10,1) 2.848796E-03
(1,9,2): (1,8,2) -1.883799E-02 (1,9,1) 4.379120E-03 (1,9,3) -2.810698E-02 (1,10,2) 2.670126E-02
(1,9,3): (1,8,3) -0.178844 (1,9,2) 2.810698E-02 (1,9,4) -0.170554 (1,10,3) 0.245993
(1,9,4): (1,8,4) -1.45168 (1,9,3) 0.170554 (1,9,5) -1.16137 (1,10,4) 1.95567
(1,9,5): (1,8,5) -9.70754 (1,9,4) 1.16137 (1,9,6) -7.92631 (1,10,5) 12.3463
(1,9,6): (1,8,6) -52.5915 (1,9,5) 7.92631 (1,9,7) 7.92631 (1,10,6) 21.3442
(1,9,7): (1,8,7) -9.70754 (1,9,6) -7.92631 (1,9,8) 1.16136 (1,10,7) 12.3463
(1,9,8): (1,8,8) -1.45169 (1,9,7) -1.16136 (1,9,9) 0.170477 (1,10,8) 1.95569
(1,9,9): (1,8,9) -0.178987 (1,9,8) -0.170477 (1,9,10) 2.748876E-02 (1,10,9) 0.246229
(1,9,10): (1,8,10) -2.056774E-02 (1,9,9) -2.748876E-02 (1,10,10) 2.929343E-02
(1,10,1): (1,9,1) -2.848796E-03 (1,10,2) 1.947181E-02 (1,11,1) -1.127387E-03
(1,10,2): (1,9,2) -2.670126E-02 (1,10,1) -1.947181E-02 (1,10,3) 0.191073 (1,11,2) -1.325901E-02
(1,10,3): (1,9,3) -0.245993 (1,10,2) -0.191073 (1,10,4) 1.53243 (1,11,3) -0.143364
(1,10,4): (1,9,4) -1.95567 (1,10,3) -1.53243 (1,10,5) 8.95535 (1,11,4) -1.28125
(1,10,5): (1,9,5) -12.3463 (1,10,4) -8.95535 (1,10,6) 0.143432 (1,11,5) -8.63967
(1,10,6): (1,9,6) -21.3442 (1,10,5) -0.143432 (1,10,7) -0.143431 (1,11,6) -8.58965
(1,10,7): (1,9,7) -12.3463 (1,10,6) 0.143431 (1,10,8) -8.95534 (1,11,7) -8.63967
(1,10,8): (1,9,8) -1.95569 (1,10,7) 8.95534 (1,10,9) -1.53229 (1,11,8) -1.28126
(1,10,9): (1,9,9) -0.246229 (1,10,8) 1.53229 (1,10,10) -0.189332 (1,11,9) -0.143437
(1,10,10): (1,9,10) -2.929343E-02 (1,10,9) 0.189332 (1,11,10) -1.430944E-02
(1,11,1): (1,10,1) 1.127387E-03 (1,11,2) 7.339432E-03 (1,12,1) -6.968844E-04
(1,11,2): (1,10,2) 1.325901E-02 (1,11,1) -7.339432E-03 (1,11,3) 6.090597E-02 (1,12,2) -6.484979E-03
(1,11,3): (1,10,3) 0.143364 (1,11,2) -6.090597E-02 (1,11,4) 0.391788 (1,12,3) -5.606683E-02
(1,11,4): (1,10,4) 1.28125 (1,11,3) -0.391788 (1,11,5) 1.57796 (1,12,4) -0.385681
(1,11,5): (1,10,5) 8.63967 (1,11,4) -1.57796 (1,11,6) 0.189244 (1,12,5) -1.76262
(1,11,6): (1,10,6) 8.58965 (1,11,5) -0.189244 (1,11,7) -0.189244 (1,12,6) -1.91855
(1,11,7): (1,10,7) 8.63967 (1,11,6) 0.189244 (1,11,8) -1.57795 (1,12,7) -1.76262
(1,11,8): (1,10,8) 1.28126 (1,11,7) 1.57795 (1,11,9) -0.391717 (1,12,8) -0.385685
(1,11,9): (1,10,9) 0.143437 (1,11,8) 0.391717 (1,11,10) -6.014503E-02 (1,12,9) -5.612283E-02
(1,11,10): (1,10,10) 1.430944E-02 (1,11,9) 6.014503E-02 (1,12,10) -7.121247E-03
(1,12,1): (1,11,1) 6.968844E-04 (1,12,2) 1.551288E-03 (1,13,1) -1.833197E-04
(1,12,2): (1,11,2) 6.484979E-03 (1,12,1) -1.551288E-03 (1,12,3) 1.132173E-02 (1,13,2) -1.491088E-03
(1,12,3): (1,11,3) 5.606683E-02 (1,12,2) -1.132173E-02 (1,12,4) 6.215376E-02 (1,13,3) -1.121542E-02
(1,12,4): (1,11,4) 0.385681 (1,12,3) -6.215376E-02 (1,12,5) 0.203454 (1,13,4) -6.564252E-02
(1,12,5): (1,11,5) 1.76262 (1,12,4) -0.203454 (1,12,6) 3.584255E-02 (1,13,5) -0.247390
(1,12,6): (1,11,6) 1.91855 (1,12,5) -3.584255E-02 (1,12,7) -3.584240E-02 (1,13,6) -0.278652
(1,12,7): (1,11,7) 1.76262 (1,12,6) 3.584240E-02 (1,12,8) -0.203452 (1,13,7) -0.247390
(1,12,8): (1,11,8) 0.385685 (1,12,7) 0.203452 (1,12,9) -6.213539E-02 (1,13,8) -6.564399E-02
(1,12,9): (1,11,9) 5.612283E-02 (1,12,8) 6.213539E-02 (1,12,10) -1.114147E-02 (1,13,9) -1.123177E-02
(1,12,10): (1,11,10) 7.121247E-03 (1,12,9) 1.114147E-02 (1,13,10) -1.656485E-03
(1,13,1): (1,12,1) 1.833197E-04 (1,13,2) 2.435193E-04 (1,14,1) -3.364261E-05
(1,13,2): (1,12,2) 1.491088E-03 (1,13,1) -2.435193E-04 (1,13,3) 1.597388E-03 (1,14,2) -2.455733E-04
(1,13,3): (1,12,3) 1.121542E-02 (1,13,2) -1.597388E-03 (1,13,4) 7.728553E-03 (1,14,3) -1.653983E-03
(1,13,4): (1,12,4) 6.564252E-02 (1,13,3) -7.728553E-03 (1,13,5) 2.178613E-02 (1,14,4) -8.560260E-03
(1,13,5): (1,12,5) 0.247390 (1,13,4) -2.178613E-02 (1,13,6) 4.655795E-03 (1,14,5) -2.828752E-02
(1,13,6): (1,12,6) 0.278652 (1,13,5) -4.655795E-03 (1,13,7) -4.655760E-03 (1,14,6) -3.244608E-02
(1,13,7): (1,12,7) 0.247390 (1,13,6) 4.655760E-03 (1,13,8) -2.178578E-02 (1,14,7) -2.828755E-02
(1,13,8): (1,12,8) 6.564399E-02 (1,13,7) 2.178578E-02 (1,13,9) -7.725082E-03 (1,14,8) -8.560578E-03
(1,13,9): (1,12,9) 1.123177E-02 (1,13,8) 7.725082E-03 (1,13,10) -1.566197E-03 (1,14,9) -1.657240E-03
(1,13,10): (1,12,10) 1.656485E-03 (1,13,9) 1.566197E-03 (1,14,10) -2.756113E-04
(1,14,1): (1,13,1) 3.364261E-05 (1,14,2) 3.158863E-05 (1,15,1) -4.886363E-06
(1,14,2): (1,13,2) 2.455733E-04 (1,14,1) -3.158863E-05 (1,14,3) 1.889792E-04 (1,15,2) -3.254897E-05
(1,14,3): (1,13,3) 1.653983E-03 (1,14,2) -1.889792E-04 (1,14,4) 8.223333E-04 (1,15,3) -1.999977E-04
(1,14,4): (1,13,4) 8.560260E-03 (1,14,3) -8.223333E-04 (1,14,5) 2.060152E-03 (1,15,4) -9.373885E-04
(1,14,5): (1,13,5) 2.828752E-02 (1,14,4) -2.060152E-03 (1,14,6) 4.983950E-04 (1,15,5) -2.805728E-03
(1,14,6): (1,13,6) 3.244608E-02 (1,14,5) -4.983950E-04 (1,14,7) -4.983884E-04 (1,15,6) -3.253191E-03
(1,14,7): (1,13,7) 2.828755E-02 (1,14,6) 4.983884E-04 (1,14,8) -2.060094E-03 (1,15,7) -2.805733E-03
(1,14,8): (1,13,8) 8.560578E-03 (1,14,7) 2.060094E-03 (1,14,9) -8.218019E-04 (1,15,8) -9.374416E-04
(1,14,9): (1,13,9) 1.657240E-03 (1,14,8) 8.218019E-04 (1,14,10) -1.845688E-04 (1,15,9) -2.005043E-04
(1,14,10): (1,13,10) 2.756113E-04 (1,14,9) 1.845688E-04 (1,15,10) -3.686997E-05
(1,15,1): (1,14,1) 4.886363E-06 (1,15,2) 3.926027E-06
(1,15,2): (1,14,2) 3.254897E-05 (1,15,1) -3.926027E-06 (1,15,3) 2.153047E-05
(1,15,3): (1,14,3) 1.999977E-04 (1,15,2) -2.153047E-05 (1,15,4) 8.494332E-05
(1,15,4): (1,14,4) 9.373885E-04 (1,15,3) -8.494332E-05 (1,15,5) 1.918263E-04
(1,15,5): (1,14,5) 2.805728E-03 (1,15,4) -1.918263E-04 (1,15,6) 5.094393E-05
(1,15,6): (1,14,6) 3.253191E-03 (1,15,5) -5.094393E-05 (1,15,7) -5.094226E-05
(1,15,7): (1,14,7) 2.805733E-03 (1,15,6) 5.094226E-05 (1,15,8) -1.918168E-04
(1,15,8): (1,14,8) 9.374416E-04 (1,15,7) 1.918168E-04 (1,15,9) -8.486546E-05
(1,15,9): (1,14,9) 2.005043E-04 (1,15,8) 8.486546E-05 (1,15,10) -2.093449E-05
(1,15,10): (1,14,10) 3.686997E-05 (1,15,9) 2.093449E-05

 WEL PACKAGE (WEL-1) FLOW RATES   PERIOD      2   STEP       11
 ----------------------------------------------------------------------------------------
   NUMBER   CELLID                    RATE       NAME                                    
 ----------------------------------------------------------------------------------------
     1      (1,8,6)              -270.00000      WEL                                     
 ----------------------------------------------------------------------------------------




 DRN PACKAGE (DRN-0) FLOW RATES   PERIOD      2   STEP       11
 ----------------------------------------------------------------------------------------
   NUMBER   CELLID                    RATE       NAME                                    
 ----------------------------------------------------------------------------------------
     1      (1,1,1)               0.0000000      SURF                                    
     2      (1,1,2)               0.0000000      SURF                                    
     3      (1,1,3)               0.0000000      SURF                                    
     4      (1,1,4)               0.0000000      SURF                                    
     5      (1,1,5)               0.0000000      SURF                                    
     6      (1,1,6)               0.0000000      SURF                                    
     7      (1,1,7)               0.0000000      SURF                                    
     8      (1,1,8)               0.0000000      SURF                                    
     9      (1,1,9)               0.0000000      SURF                                    
     10     (1,1,10)              0.0000000      SURF                                    
     11     (1,2,1)               0.0000000      SURF                                    
     12     (1,2,2)               0.0000000      SURF                                    
     13     (1,2,3)               0.0000000      SURF                                    
     14     (1,2,4)               0.0000000      SURF                                    
     15     (1,2,5)               0.0000000      SURF                                    
     16     (1,2,6)               0.0000000      SURF                                    
     17     (1,2,7)               0.0000000      SURF                                    
     18     (1,2,8)               0.0000000      SURF                                    
     19     (1,2,9)               0.0000000      SURF                                    
     20     (1,2,10)              0.0000000      SURF                                    
     21     (1,3,1)               0.0000000      SURF                                    
     22     (1,3,2)               0.0000000      SURF                                    
     23     (1,3,3)               0.0000000      SURF                                    
     24     (1,3,4)               0.0000000      SURF                                    
     25     (1,3,5)               0.0000000      SURF                                    
     26     (1,3,6)               0.0000000      SURF                                    
     27     (1,3,7)               0.0000000      SURF                                    
     28     (1,3,8)               0.0000000      SURF                                    
     29     (1,3,9)               0.0000000      SURF                                    
     30     (1,3,10)              0.0000000      SURF                                    
     31     (1,4,1)               0.0000000      SURF                                    
     32     (1,4,2)               0.0000000      SURF                                    
     33     (1,4,3)               0.0000000      SURF                                    
     34     (1,4,4)               0.0000000      SURF                                    
     35     (1,4,5)               0.0000000      SURF                                    
     36     (1,4,6)               0.0000000      SURF                                    
     37     (1,4,7)               0.0000000      SURF                                    
     38     (1,4,8)               0.0000000      SURF                                    
     39     (1,4,9)               0.0000000      SURF                                    
     40     (1,4,10)              0.0000000      SURF                                    
     41     (1,5,1)               0.0000000      SURF                                    
     42     (1,5,2)               0.0000000      SURF                                    
     43     (1,5,3)               0.0000000      SURF                                    
     44     (1,5,4)               0.0000000      SURF                                    
     45     (1,5,5)               0.0000000      SURF                                    
     46     (1,5,6)               0.0000000      SURF                                    
     47     (1,5,7)               0.0000000      SURF                                    
     48     (1,5,8)               0.0000000      SURF                                    
     49     (1,5,9)               0.0000000      SURF                                    
     50     (1,5,10)              0.0000000      SURF                                    
     51     (1,6,1)               0.0000000      SURF                                    
     52     (1,6,2)               0.0000000      SURF                                    
     53     (1,6,3)               0.0000000      SURF                                    
     54     (1,6,4)               0.0000000      SURF                                    
     55     (1,6,5)               0.0000000      SURF                                    
     56     (1,6,6)              -1.88301783E-08 SURF                                    
     57     (1,6,7)               0.0000000      SURF                                    
     58     (1,6,8)               0.0000000      SURF                                    
     59     (1,6,9)               0.0000000      SURF                                    
     60     (1,6,10)              0.0000000      SURF                                    
     61     (1,7,1)               0.0000000      SURF                                    
     62     (1,7,2)               0.0000000      SURF                                    
     63     (1,7,3)               0.0000000      SURF                                    
     64     (1,7,4)               0.0000000      SURF                                    
     65     (1,7,5)               0.0000000      SURF                                    
     66     (1,7,6)               0.0000000      SURF                                    
     67     (1,7,7)               0.0000000      SURF                                    
     68     (1,7,8)               0.0000000      SURF                                    
     69     (1,7,9)               0.0000000      SURF                                    
     70     (1,7,10)              0.0000000      SURF                                    
     71     (1,8,1)               0.0000000      SURF                                    
     72     (1,8,2)               0.0000000      SURF                                    
     73     (1,8,3)               0.0000000      SURF                                    
     74     (1,8,4)               0.0000000      SURF                                    
     75     (1,8,5)               0.0000000      SURF                                    
     76     (1,8,6)               0.0000000      SURF                                    
     77     (1,8,7)               0.0000000      SURF                                    
     78     (1,8,8)               0.0000000      SURF                                    
     79     (1,8,9)               0.0000000      SURF                                    
     80     (1,8,10)              0.0000000      SURF                                    
     81     (1,9,1)               0.0000000      SURF                                    
     82     (1,9,2)               0.0000000      SURF                                    
     83     (1,9,3)               0.0000000      SURF                                    
     84     (1,9,4)               0.0000000      SURF                                    
     85     (1,9,5)               0.0000000      SURF                                    
     86     (1,9,6)               0.0000000      SURF                                    
     87     (1,9,7)               0.0000000      SURF                                    
     88     (1,9,8)               0.0000000      SURF                                    
     89     (1,9,9)               0.0000000      SURF                                    
     90     (1,9,10)              0.0000000      SURF                                    
     91     (1,10,1)              0.0000000      SURF                                    
     92     (1,10,2)              0.0000000      SURF                                    
     93     (1,10,3)              0.0000000      SURF                                    
     94     (1,10,4)              0.0000000      SURF                                    
     95     (1,10,5)              0.0000000      SURF                                    
     96     (1,10,6)             -4.78888978E-07 SURF                                    
     97     (1,10,7)              0.0000000      SURF                                    
     98     (1,10,8)              0.0000000      SURF                                    
     99     (1,10,9)              0.0000000      SURF                                    
    100     (1,10,10)             0.0000000      SURF                                    
    101     (1,11,1)              0.0000000      SURF                                    
    102     (1,11,2)              0.0000000      SURF                                    
    103     (1,11,3)              0.0000000      SURF                                    
    104     (1,11,4)              0.0000000      SURF                                    
    105     (1,11,5)              0.0000000      SURF                                    
    106     (1,11,6)              0.0000000      SURF                                    
    107     (1,11,7)              0.0000000      SURF                                    
    108     (1,11,8)              0.0000000      SURF                                    
    109     (1,11,9)              0.0000000      SURF                                    
    110     (1,11,10)             0.0000000      SURF                                    
    111     (1,12,1)              0.0000000      SURF                                    
    112     (1,12,2)              0.0000000      SURF                                    
    113     (1,12,3)              0.0000000      SURF                                    
    114     (1,12,4)              0.0000000      SURF                                    
    115     (1,12,5)              0.0000000      SURF                                    
    116     (1,12,6)              0.0000000      SURF                                    
    117     (1,12,7)              0.0000000      SURF                                    
    118     (1,12,8)              0.0000000      SURF                                    
    119     (1,12,9)              0.0000000      SURF                                    
    120     (1,12,10)             0.0000000      SURF                                    
    121     (1,13,1)              0.0000000      SURF                                    
    122     (1,13,2)              0.0000000      SURF                                    
    123     (1,13,3)              0.0000000      SURF                                    
    124     (1,13,4)              0.0000000      SURF                                    
    125     (1,13,5)              0.0000000      SURF                                    
    126     (1,13,6)              0.0000000      SURF                                    
    127     (1,13,7)              0.0000000      SURF                                    
    128     (1,13,8)              0.0000000      SURF                                    
    129     (1,13,9)              0.0000000      SURF                                    
    130     (1,13,10)             0.0000000      SURF                                    
    131     (1,14,1)              0.0000000      SURF                                    
    132     (1,14,2)              0.0000000      SURF                                    
    133     (1,14,3)              0.0000000      SURF                                    
    134     (1,14,4)              0.0000000      SURF                                    
    135     (1,14,5)              0.0000000      SURF                                    
    136     (1,14,6)              0.0000000      SURF                                    
    137     (1,14,7)              0.0000000      SURF                                    
    138     (1,14,8)              0.0000000      SURF                                    
    139     (1,14,9)              0.0000000      SURF                                    
    140     (1,14,10)             0.0000000      SURF                                    
    141     (1,15,1)              0.0000000      SURF                                    
    142     (1,15,2)              0.0000000      SURF                                    
    143     (1,15,3)              0.0000000      SURF                                    
    144     (1,15,4)              0.0000000      SURF                                    
    145     (1,15,5)              0.0000000      SURF                                    
    146     (1,15,6)              0.0000000      SURF                                    
    147     (1,15,7)              0.0000000      SURF                                    
    148     (1,15,8)              0.0000000      SURF                                    
    149     (1,15,9)              0.0000000      SURF                                    
    150     (1,15,10)             0.0000000      SURF                                    
 ----------------------------------------------------------------------------------------




 API PACKAGE (MAR) FLOW RATES   PERIOD      2   STEP       11
 -----------------------------------------------
   NUMBER   CELLID                    RATE      
 -----------------------------------------------
     1      (1,6,5)               28.780887     
     2      (1,6,6)               28.780887     
     3      (1,6,7)               28.780887     
     4      (1,10,5)              30.220753     
     5      (1,10,6)              30.220753     
     6      (1,10,7)              30.220753     
 -----------------------------------------------



1
  HEAD IN LAYER   1 AT END OF TIME STEP  11 IN STRESS PERIOD    2
  ---------------------------------------------------------------------------

            1           2           3           4           5           6           7           8           9          10
 ........................................................................................................................
   1   6.6083E-07  3.3039E-06  1.5513E-05  5.5626E-05  1.3206E-04  1.5931E-04  1.3206E-04  5.5637E-05  1.5598E-05  3.8666E-06
   2   3.9992E-06  2.1478E-05  1.0792E-04  4.1421E-04  1.0432E-03  1.2539E-03  1.0432E-03  4.1427E-04  1.0841E-04  2.4919E-05
   3   2.3319E-05  1.3442E-04  7.2359E-04  2.9840E-03  8.0320E-03  9.5859E-03  8.0320E-03  2.9843E-03  7.2630E-04  1.5467E-04
   4   1.1034E-04  6.8663E-04  3.9927E-03  1.7910E-02  5.2488E-02  6.1723E-02  5.2488E-02  1.7911E-02  4.0048E-03  7.8333E-04
   5   3.8147E-04  2.5804E-03  1.6390E-02  8.1502E-02  0.2699      0.3065      0.2699      8.1506E-02  1.6430E-02  2.9178E-03
   6   7.5519E-04  5.5696E-03  3.9168E-02  0.2247      0.9700       1.000      0.9700      0.2247      3.9241E-02  6.2427E-03
   7   1.8929E-04  1.1214E-03  5.5266E-03  1.2704E-02 -7.3898E-02 -0.8630     -7.3898E-02  1.2706E-02  5.5476E-03  1.2873E-03
   8  -2.6866E-04 -2.4020E-03 -2.1219E-02 -0.1659      -1.121      -6.745      -1.121     -0.1659     -2.1242E-02 -2.6454E-03
   9  -8.0187E-05 -5.1810E-04 -3.3289E-03 -2.0390E-02 -0.1368     -0.9404     -0.1368     -2.0391E-02 -3.3376E-03 -5.8856E-04
  10   2.0469E-04  2.1514E-03  2.1218E-02  0.1719      0.9870       1.000      0.9870      0.1719      2.1233E-02  2.3401E-03
  11   9.1951E-05  8.2583E-04  6.9122E-03  4.5912E-02  0.2006      0.2191      0.2006      4.5913E-02  6.9198E-03  9.0949E-04
  12   2.2263E-05  1.7739E-04  1.3094E-03  7.5201E-03  2.7809E-02  3.1382E-02  2.7809E-02  7.5203E-03  1.3114E-03  1.9743E-04
  13   3.9311E-06  2.8283E-05  1.8802E-04  9.6080E-04  3.1387E-03  3.6041E-03  3.1387E-03  9.6084E-04  1.8840E-04  3.1787E-05
  14   5.6682E-07  3.7257E-06  2.2624E-05  1.0486E-04  3.1086E-04  3.6070E-04  3.1087E-04  1.0486E-04  2.2683E-05  4.2263E-06
  15   7.8180E-08  4.7078E-07  2.6238E-06  1.1118E-05  3.0301E-05  3.5395E-05  3.0301E-05  1.1119E-05  2.6327E-06  5.3928E-07

 HEAD WILL BE SAVED ON UNIT 1100 AT END OF TIME STEP   11, STRESS PERIOD    2


  VOLUME BUDGET FOR ENTIRE MODEL AT END OF TIME STEP   11, STRESS PERIOD   2
  ---------------------------------------------------------------------------------------------------

     CUMULATIVE VOLUME      L**3       RATES FOR THIS TIME STEP      L**3/T          PACKAGE NAME    
     ------------------                 ------------------------                     ----------------

           IN:                                      IN:
           ---                                      ---
              STO-SS =           9.3082                STO-SS =       6.0856E-02     STORAGE                          
              STO-SY =       23585.4263                STO-SY =         171.2356     STORAGE                          
                 WEL =           0.0000                   WEL =           0.0000     WEL-1                            
                 DRN =           0.0000                   DRN =           0.0000     DRN-0                            
                 API =       24478.3392                   API =         177.0049     MAR                              
                 CHD =       2.0279E-08                   CHD =           0.0000     CHD_0                            

            TOTAL IN =       48073.0736              TOTAL IN =         348.3014

          OUT:                                     OUT:
          ----                                     ----
              STO-SS =           9.5043                STO-SS =       3.9855E-02     STORAGE                          
              STO-SY =       18363.5693                STO-SY =          78.2616     STORAGE                          
                 WEL =       29700.0000                   WEL =         270.0000     WEL-1                            
                 DRN =       3.2071E-05                   DRN =       4.9772E-07     DRN-0                            
                 API =           0.0000                   API =           0.0000     MAR                              
                 CHD =       2.0705E-08                   CHD =           0.0000     CHD_0                            

           TOTAL OUT =       48073.0736             TOTAL OUT =         348.3014

            IN - OUT =      -1.6778E-08              IN - OUT =      -2.7724E-09

 PERCENT DISCREPANCY =          -0.00     PERCENT DISCREPANCY =          -0.00




         TIME SUMMARY AT END OF TIME STEP   11 IN STRESS PERIOD    2
                    SECONDS     MINUTES      HOURS       DAYS        YEARS
                    -----------------------------------------------------------
   TIME STEP LENGTH 8.64000E+05  14400.      240.00      10.000     2.73785E-02
 STRESS PERIOD TIME 9.50400E+06 1.58400E+05  2640.0      110.00     0.30116    
         TOTAL TIME 9.59040E+06 1.59840E+05  2664.0      111.00     0.30390    


end timestep


start timestep kper="2" kstp="12" mode="normal"

 UBDSV1 SAVING           STO-SS ON UNIT   1099 AT TIME STEP     12, STRESS PERIOD      2
 UBDSV1 SAVING           STO-SY ON UNIT   1099 AT TIME STEP     12, STRESS PERIOD      2
 UBDSV1 SAVING     FLOW-JA-FACE ON UNIT   1099 AT TIME STEP     12, STRESS PERIOD      2
 UBDSV06 SAVING       DATA-SPDIS IN MODEL GWF              PACKAGE NPF             CONNECTED TO MODEL GWF              PACKAGE NPF              ON UNIT   1099 AT TIME STEP     12, STRESS PERIOD      2
 UBDSV06 SAVING              WEL IN MODEL GWF              PACKAGE GWF             CONNECTED TO MODEL GWF              PACKAGE WEL-1            ON UNIT   1099 AT TIME STEP     12, STRESS PERIOD      2
 UBDSV06 SAVING              DRN IN MODEL GWF              PACKAGE GWF             CONNECTED TO MODEL GWF              PACKAGE DRN-0            ON UNIT   1099 AT TIME STEP     12, STRESS PERIOD      2
 UBDSV06 SAVING              API IN MODEL GWF              PACKAGE GWF             CONNECTED TO MODEL GWF              PACKAGE MAR              ON UNIT   1099 AT TIME STEP     12, STRESS PERIOD      2
 UBDSV06 SAVING              CHD IN MODEL GWF              PACKAGE GWF             CONNECTED TO MODEL GWF              PACKAGE CHD_0            ON UNIT   1099 AT TIME STEP     12, STRESS PERIOD      2

    CALCULATED INTERCELL FLOW FOR PERIOD 2 STEP 12
(1,1,1): (1,1,2) 4.267856E-05 (1,2,1) 5.389526E-05
(1,1,2): (1,1,1) -4.267856E-05 (1,1,3) 1.875127E-04 (1,2,2) 2.768650E-04
(1,1,3): (1,1,2) -1.875127E-04 (1,1,4) 5.840403E-04 (1,2,3) 1.334302E-03
(1,1,4): (1,1,3) -5.840403E-04 (1,1,5) 1.059144E-03 (1,2,4) 4.915596E-03
(1,1,5): (1,1,4) -1.059144E-03 (1,1,6) 3.876709E-04 (1,2,5) 1.196011E-02
(1,1,6): (1,1,5) -3.876709E-04 (1,1,7) -3.876444E-04 (1,2,6) 1.436948E-02
(1,1,7): (1,1,6) 3.876444E-04 (1,1,8) -1.058956E-03 (1,2,7) 1.196021E-02
(1,1,8): (1,1,7) 1.058956E-03 (1,1,9) -5.827255E-04 (1,2,8) 4.916488E-03
(1,1,9): (1,1,8) 5.827255E-04 (1,1,10) -1.793838E-04 (1,2,9) 1.341101E-03
(1,1,10): (1,1,9) 1.793838E-04 (1,2,10) 3.229567E-04
(1,2,1): (1,1,1) -5.389526E-05 (1,2,2) 2.656483E-04 (1,3,1) 2.952503E-04
(1,2,2): (1,1,2) -2.768650E-04 (1,2,1) -2.656483E-04 (1,2,3) 1.244948E-03 (1,3,2) 1.622737E-03
(1,2,3): (1,1,3) -1.334302E-03 (1,2,2) -1.244948E-03 (1,2,4) 4.165308E-03 (1,3,3) 8.353423E-03
(1,2,4): (1,1,4) -4.915596E-03 (1,2,3) -4.165308E-03 (1,2,5) 8.103381E-03 (1,3,4) 3.297069E-02
(1,2,5): (1,1,5) -1.196011E-02 (1,2,4) -8.103381E-03 (1,2,6) 2.796772E-03 (1,3,5) 8.552444E-02
(1,2,6): (1,1,6) -1.436948E-02 (1,2,5) -2.796772E-03 (1,2,7) -2.796640E-03 (1,3,6) 0.102017
(1,2,7): (1,1,7) -1.196021E-02 (1,2,6) 2.796640E-03 (1,2,8) -8.102407E-03 (1,3,7) 8.552495E-02
(1,2,8): (1,1,8) -4.916488E-03 (1,2,7) 8.102407E-03 (1,2,9) -4.158086E-03 (1,3,8) 3.297511E-02
(1,2,9): (1,1,9) -1.341101E-03 (1,2,8) 4.158086E-03 (1,2,10) -1.197526E-03 (1,3,9) 8.388937E-03
(1,2,10): (1,1,10) -3.229567E-04 (1,2,9) 1.197526E-03 (1,3,10) 1.877570E-03
(1,3,1): (1,2,1) -2.952503E-04 (1,3,2) 1.593134E-03 (1,4,1) 1.251117E-03
(1,3,2): (1,2,2) -1.622737E-03 (1,3,1) -1.593134E-03 (1,3,3) 7.975609E-03 (1,4,2) 7.436911E-03
(1,3,3): (1,2,3) -8.353423E-03 (1,3,2) -7.975609E-03 (1,3,4) 2.878154E-02 (1,4,3) 4.142645E-02
(1,3,4): (1,2,4) -3.297069E-02 (1,3,3) -2.878154E-02 (1,3,5) 6.064409E-02 (1,4,4) 0.178370
(1,3,5): (1,2,5) -8.552444E-02 (1,3,4) -6.064409E-02 (1,3,6) 1.927618E-02 (1,4,5) 0.506346
(1,3,6): (1,2,6) -0.102017 (1,3,5) -1.927618E-02 (1,3,7) -1.927555E-02 (1,4,6) 0.594339
(1,3,7): (1,2,7) -8.552495E-02 (1,3,6) 1.927555E-02 (1,3,8) -6.063919E-02 (1,4,7) 0.506348
(1,3,8): (1,2,8) -3.297511E-02 (1,3,7) 6.063919E-02 (1,3,9) -2.874322E-02 (1,4,8) 0.178387
(1,3,9): (1,2,9) -8.388937E-03 (1,3,8) 2.874322E-02 (1,3,10) -7.708850E-03 (1,4,9) 4.156892E-02
(1,3,10): (1,2,10) -1.877570E-03 (1,3,9) 7.708850E-03 (1,4,10) 8.527532E-03
(1,4,1): (1,3,1) -1.251117E-03 (1,4,2) 7.778949E-03 (1,5,1) 3.643099E-03
(1,4,2): (1,3,2) -7.436911E-03 (1,4,1) -7.778949E-03 (1,4,3) 4.196533E-02 (1,5,2) 2.374818E-02
(1,4,3): (1,3,3) -4.142645E-02 (1,4,2) -4.196533E-02 (1,4,4) 0.165708 (1,5,3) 0.145933
(1,4,4): (1,3,4) -0.178370 (1,4,3) -0.165708 (1,4,5) 0.388238 (1,5,4) 0.707932
(1,4,5): (1,3,5) -0.506346 (1,4,4) -0.388238 (1,4,6) 0.106849 (1,5,5) 2.34292
(1,4,6): (1,3,6) -0.594339 (1,4,5) -0.106849 (1,4,7) -0.106847 (1,5,6) 2.63813
(1,4,7): (1,3,7) -0.506348 (1,4,6) 0.106847 (1,4,8) -0.388218 (1,5,7) 2.34292
(1,4,8): (1,3,8) -0.178387 (1,4,7) 0.388218 (1,4,9) -0.165544 (1,5,8) 0.707976
(1,4,9): (1,3,9) -4.156892E-02 (1,4,8) 0.165544 (1,4,10) -4.074997E-02 (1,5,9) 0.146322
(1,4,10): (1,3,10) -8.527532E-03 (1,4,9) 4.074997E-02 (1,5,10) 2.695791E-02
(1,5,1): (1,4,1) -3.643099E-03 (1,5,2) 2.788486E-02 (1,6,1) 4.570386E-03
(1,5,2): (1,4,2) -2.374818E-02 (1,5,1) -2.788486E-02 (1,5,3) 0.164172 (1,6,2) 3.404978E-02
(1,5,3): (1,4,3) -0.145933 (1,5,2) -0.164172 (1,5,4) 0.727817 (1,6,3) 0.244168
(1,5,4): (1,4,4) -0.707932 (1,5,3) -0.727817 (1,5,5) 2.01825 (1,6,4) 1.48166
(1,5,5): (1,4,5) -2.34292 (1,5,4) -2.01825 (1,5,6) 0.396035 (1,6,5) 7.59080
(1,5,6): (1,4,6) -2.63813 (1,5,5) -0.396035 (1,5,7) -0.396028 (1,6,6) 7.41021
(1,5,7): (1,4,7) -2.34292 (1,5,6) 0.396028 (1,5,8) -2.01819 (1,6,7) 7.59080
(1,5,8): (1,4,8) -0.707976 (1,5,7) 2.01819 (1,5,9) -0.727304 (1,6,8) 1.48170
(1,5,9): (1,4,9) -0.146322 (1,5,8) 0.727304 (1,5,10) -0.160131 (1,6,9) 0.244614
(1,5,10): (1,4,10) -2.695791E-02 (1,5,9) 0.160131 (1,6,10) 3.813083E-02
(1,6,1): (1,5,1) -4.570386E-03 (1,6,2) 5.737112E-02 (1,7,1) -7.326432E-03
(1,6,2): (1,5,2) -3.404978E-02 (1,6,1) -5.737112E-02 (1,6,3) 0.374561 (1,7,2) -5.380287E-02
(1,6,3): (1,5,3) -0.244168 (1,6,2) -0.374561 (1,6,4) 1.97107 (1,7,3) -0.383841
(1,6,4): (1,5,4) -1.48166 (1,6,3) -1.97107 (1,6,5) 8.15550 (1,7,4) -2.33356
(1,6,5): (1,5,5) -7.59080 (1,6,4) -8.15550 (1,6,6) 0.227018 (1,7,5) -11.9100
(1,6,6): (1,5,6) -7.41021 (1,6,5) -0.227018 (1,6,7) -0.227006 (1,7,6) -21.4288
(1,6,7): (1,5,7) -7.59080 (1,6,6) 0.227006 (1,6,8) -8.15540 (1,7,7) -11.9100
(1,6,8): (1,5,8) -1.48170 (1,6,7) 8.15540 (1,6,9) -1.97014 (1,7,8) -2.33364
(1,6,9): (1,5,9) -0.244614 (1,6,8) 1.97014 (1,6,10) -0.366864 (1,7,9) -0.384569
(1,6,10): (1,5,10) -3.813083E-02 (1,6,9) 0.366864 (1,7,10) -6.033050E-02
(1,7,1): (1,6,1) 7.326432E-03 (1,7,2) 1.089303E-02 (1,8,1) -6.095898E-03
(1,7,2): (1,6,2) 5.380287E-02 (1,7,1) -1.089303E-02 (1,7,3) 4.455388E-02 (1,8,2) -4.392251E-02
(1,7,3): (1,6,3) 0.383841 (1,7,2) -4.455388E-02 (1,7,4) 2.806159E-02 (1,8,3) -0.314281
(1,7,4): (1,6,4) 2.33356 (1,7,3) -2.806159E-02 (1,7,5) -1.14095 (1,8,4) -1.98660
(1,7,5): (1,6,5) 11.9100 (1,7,4) 1.14095 (1,7,6) -8.33789 (1,8,5) -11.0169
(1,7,6): (1,6,6) 21.4288 (1,7,5) 8.33789 (1,7,7) 8.33789 (1,8,6) -55.1275
(1,7,7): (1,6,7) 11.9100 (1,7,6) -8.33789 (1,7,8) 1.14099 (1,8,7) -11.0169
(1,7,8): (1,6,8) 2.33364 (1,7,7) -1.14099 (1,7,9) -2.780157E-02 (1,8,8) -1.98667
(1,7,9): (1,6,9) 0.384569 (1,7,8) 2.780157E-02 (1,7,10) -4.268272E-02 (1,8,9) -0.314898
(1,7,10): (1,6,10) 6.033050E-02 (1,7,9) 4.268272E-02 (1,8,10) -4.933365E-02
(1,8,1): (1,7,1) 6.095898E-03 (1,8,2) -2.692834E-02 (1,9,1) 2.616848E-03
(1,8,2): (1,7,2) 4.392251E-02 (1,8,1) 2.692834E-02 (1,8,3) -0.225586 (1,9,2) 2.454469E-02
(1,8,3): (1,7,3) 0.314281 (1,8,2) 0.225586 (1,8,4) -1.63855 (1,9,3) 0.218484
(1,8,4): (1,7,4) 1.98660 (1,8,3) 1.63855 (1,8,5) -10.0940 (1,9,4) 1.65855
(1,8,5): (1,7,5) 11.0169 (1,8,4) 10.0940 (1,8,6) -51.1010 (1,9,5) 10.4109
(1,8,6): (1,7,6) 55.1275 (1,8,5) 51.1010 (1,8,7) 51.1010 (1,9,6) 54.1055
(1,8,7): (1,7,7) 11.0169 (1,8,6) -51.1010 (1,8,8) 10.0940 (1,9,7) 10.4109
(1,8,8): (1,7,8) 1.98667 (1,8,7) -10.0940 (1,8,9) 1.63825 (1,9,8) 1.65856
(1,8,9): (1,7,9) 0.314898 (1,8,8) -1.63825 (1,8,10) 0.222656 (1,9,9) 0.218693
(1,8,10): (1,7,10) 4.933365E-02 (1,8,9) -0.222656 (1,9,10) 2.693461E-02
(1,9,1): (1,8,1) -2.616848E-03 (1,9,2) -4.999981E-03 (1,10,1) 4.051104E-03
(1,9,2): (1,8,2) -2.454469E-02 (1,9,1) 4.999981E-03 (1,9,3) -3.163266E-02 (1,10,2) 3.518793E-02
(1,9,3): (1,8,3) -0.218484 (1,9,2) 3.163266E-02 (1,9,4) -0.198771 (1,10,3) 0.299075
(1,9,4): (1,8,4) -1.65855 (1,9,3) 0.198771 (1,9,5) -1.36761 (1,10,4) 2.17587
(1,9,5): (1,8,5) -10.4109 (1,9,4) 1.36761 (1,9,6) -8.41392 (1,10,5) 12.6615
(1,9,6): (1,8,6) -54.1055 (1,9,5) 8.41392 (1,9,7) 8.41391 (1,10,6) 22.1745
(1,9,7): (1,8,7) -10.4109 (1,9,6) -8.41391 (1,9,8) 1.36760 (1,10,7) 12.6615
(1,9,8): (1,8,8) -1.65856 (1,9,7) -1.36760 (1,9,9) 0.198672 (1,10,8) 2.17590
(1,9,9): (1,8,9) -0.218693 (1,9,8) -0.198672 (1,9,10) 3.089009E-02 (1,10,9) 0.299431
(1,9,10): (1,8,10) -2.693461E-02 (1,9,9) -3.089009E-02 (1,10,10) 3.885116E-02
(1,10,1): (1,9,1) -4.051104E-03 (1,10,2) 2.613428E-02 (1,11,1) -1.592042E-03
(1,10,2): (1,9,2) -3.518793E-02 (1,10,1) -2.613428E-02 (1,10,3) 0.232089 (1,11,2) -1.702798E-02
(1,10,3): (1,9,3) -0.299075 (1,10,2) -0.232089 (1,10,4) 1.66928 (1,11,3) -0.167638
(1,10,4): (1,9,4) -2.17587 (1,10,3) -1.66928 (1,10,5) 8.80776 (1,11,4) -1.35798
(1,10,5): (1,9,5) -12.6615 (1,10,4) -8.80776 (1,10,6) 9.646640E-02 (1,11,5) -8.41696
(1,10,6): (1,9,6) -22.1745 (1,10,5) -9.646640E-02 (1,10,7) -9.646486E-02 (1,11,6) -8.27665
(1,10,7): (1,9,7) -12.6615 (1,10,6) 9.646486E-02 (1,10,8) -8.80775 (1,11,7) -8.41696
(1,10,8): (1,9,8) -2.17590 (1,10,7) 8.80775 (1,10,9) -1.66906 (1,11,8) -1.35799
(1,10,9): (1,9,9) -0.299431 (1,10,8) 1.66906 (1,10,10) -0.229518 (1,11,9) -0.167750
(1,10,10): (1,9,10) -3.885116E-02 (1,10,9) 0.229518 (1,11,10) -1.850133E-02
(1,11,1): (1,10,1) 1.592042E-03 (1,11,2) 1.069694E-02 (1,12,1) -1.095080E-03
(1,11,2): (1,10,2) 1.702798E-02 (1,11,1) -1.069694E-02 (1,11,3) 8.138193E-02 (1,12,2) -9.349320E-03
(1,11,3): (1,10,3) 0.167638 (1,11,2) -8.138193E-02 (1,11,4) 0.475384 (1,12,3) -7.423109E-02
(1,11,4): (1,10,4) 1.35798 (1,11,3) -0.475384 (1,11,5) 1.72630 (1,12,4) -0.466443
(1,11,5): (1,10,5) 8.41696 (1,11,4) -1.72630 (1,11,6) 0.226828 (1,12,5) -1.94733
(1,11,6): (1,10,6) 8.27665 (1,11,5) -0.226828 (1,11,7) -0.226827 (1,12,6) -2.12923
(1,11,7): (1,10,7) 8.41696 (1,11,6) 0.226827 (1,11,8) -1.72629 (1,12,7) -1.94733
(1,11,8): (1,10,8) 1.35799 (1,11,7) 1.72629 (1,11,9) -0.475264 (1,12,8) -0.466451
(1,11,9): (1,10,9) 0.167750 (1,11,8) 0.475264 (1,11,10) -8.017712E-02 (1,12,9) -7.432543E-02
(1,11,10): (1,10,10) 1.850133E-02 (1,11,9) 8.017712E-02 (1,12,10) -1.034170E-02
(1,12,1): (1,11,1) 1.095080E-03 (1,12,2) 2.442584E-03 (1,13,1) -3.114591E-04
(1,12,2): (1,11,2) 9.349320E-03 (1,12,1) -2.442584E-03 (1,12,3) 1.649553E-02 (1,13,2) -2.342063E-03
(1,12,3): (1,11,3) 7.423109E-02 (1,12,2) -1.649553E-02 (1,12,4) 8.313699E-02 (1,13,3) -1.631858E-02
(1,12,4): (1,11,4) 0.466443 (1,12,3) -8.313699E-02 (1,12,5) 0.248527 (1,13,4) -8.817108E-02
(1,12,5): (1,11,5) 1.94733 (1,12,4) -0.248527 (1,12,6) 4.814470E-02 (1,13,5) -0.307426
(1,12,6): (1,11,6) 2.12923 (1,12,5) -4.814470E-02 (1,12,7) -4.814437E-02 (1,13,6) -0.348830
(1,12,7): (1,11,7) 1.94733 (1,12,6) 4.814437E-02 (1,12,8) -0.248524 (1,13,7) -0.307426
(1,12,8): (1,11,8) 0.466451 (1,12,7) 0.248524 (1,12,9) -8.310352E-02 (1,13,8) -8.817391E-02
(1,12,9): (1,11,9) 7.432543E-02 (1,12,8) 8.310352E-02 (1,12,10) -1.618966E-02 (1,13,9) -1.634814E-02
(1,12,10): (1,11,10) 1.034170E-02 (1,12,9) 1.618966E-02 (1,13,10) -2.620925E-03
(1,13,1): (1,12,1) 3.114591E-04 (1,13,2) 4.119771E-04 (1,14,1) -6.128793E-05
(1,13,2): (1,12,2) 2.342063E-03 (1,13,1) -4.119771E-04 (1,13,3) 2.518986E-03 (1,14,2) -4.161092E-04
(1,13,3): (1,12,3) 1.631858E-02 (1,13,2) -2.518986E-03 (1,13,4) 1.128810E-02 (1,14,3) -2.614458E-03
(1,13,4): (1,12,4) 8.817108E-02 (1,13,3) -1.128810E-02 (1,13,5) 2.940053E-02 (1,14,4) -1.260108E-02
(1,13,5): (1,12,5) 0.307426 (1,13,4) -2.940053E-02 (1,13,6) 6.863766E-03 (1,14,5) -3.896217E-02
(1,13,6): (1,12,6) 0.348830 (1,13,5) -6.863766E-03 (1,13,7) -6.863689E-03 (1,14,6) -4.502977E-02
(1,13,7): (1,12,7) 0.307426 (1,13,6) 6.863689E-03 (1,13,8) -2.939982E-02 (1,14,7) -3.896224E-02
(1,13,8): (1,12,8) 8.817391E-02 (1,13,7) 2.939982E-02 (1,13,9) -1.128139E-02 (1,14,8) -1.260174E-02
(1,13,9): (1,12,9) 1.634814E-02 (1,13,8) 1.128139E-02 (1,13,10) -2.462460E-03 (1,14,9) -2.620736E-03
(1,13,10): (1,12,10) 2.620925E-03 (1,13,9) 2.462460E-03 (1,14,10) -4.704047E-04
(1,14,1): (1,13,1) 6.128793E-05 (1,14,2) 5.715586E-05 (1,15,1) -9.478106E-06
(1,14,2): (1,13,2) 4.161092E-04 (1,14,1) -5.715586E-05 (1,14,3) 3.206395E-04 (1,15,2) -5.902722E-05
(1,14,3): (1,13,3) 2.614458E-03 (1,14,2) -3.206395E-04 (1,14,4) 1.301606E-03 (1,15,3) -3.403511E-04
(1,14,4): (1,13,4) 1.260108E-02 (1,14,3) -1.301606E-03 (1,14,5) 3.041963E-03 (1,15,4) -1.496378E-03
(1,14,5): (1,13,5) 3.896217E-02 (1,14,4) -3.041963E-03 (1,14,6) 7.984816E-04 (1,15,5) -4.229176E-03
(1,14,6): (1,13,6) 4.502977E-02 (1,14,5) -7.984816E-04 (1,14,7) -7.984669E-04 (1,15,6) -4.939094E-03
(1,14,7): (1,13,7) 3.896224E-02 (1,14,6) 7.984669E-04 (1,14,8) -3.041838E-03 (1,15,7) -4.229187E-03
(1,14,8): (1,13,8) 1.260174E-02 (1,14,7) 3.041838E-03 (1,14,9) -1.300517E-03 (1,15,8) -1.496493E-03
(1,14,9): (1,13,9) 2.620736E-03 (1,14,8) 1.300517E-03 (1,14,10) -3.121327E-04 (1,15,9) -3.413859E-04
(1,14,10): (1,13,10) 4.704047E-04 (1,14,9) 3.121327E-04 (1,15,10) -6.734286E-05
(1,15,1): (1,14,1) 9.478106E-06 (1,15,2) 7.606748E-06
(1,15,2): (1,14,2) 5.902722E-05 (1,15,1) -7.606748E-06 (1,15,3) 3.931564E-05
(1,15,3): (1,14,3) 3.403511E-04 (1,15,2) -3.931564E-05 (1,15,4) 1.455819E-04
(1,15,4): (1,14,4) 1.496378E-03 (1,15,3) -1.455819E-04 (1,15,5) 3.091974E-04
(1,15,5): (1,14,5) 4.229176E-03 (1,15,4) -3.091974E-04 (1,15,6) 8.859251E-05
(1,15,6): (1,14,6) 4.939094E-03 (1,15,5) -8.859251E-05 (1,15,7) -8.858936E-05
(1,15,7): (1,14,7) 4.229187E-03 (1,15,6) 8.858936E-05 (1,15,8) -3.091763E-04
(1,15,8): (1,14,8) 1.496493E-03 (1,15,7) 3.091763E-04 (1,15,9) -1.454127E-04
(1,15,9): (1,14,9) 3.413859E-04 (1,15,8) 1.454127E-04 (1,15,10) -3.808974E-05
(1,15,10): (1,14,10) 6.734286E-05 (1,15,9) 3.808974E-05

 WEL PACKAGE (WEL-1) FLOW RATES   PERIOD      2   STEP       12
 ----------------------------------------------------------------------------------------
   NUMBER   CELLID                    RATE       NAME                                    
 ----------------------------------------------------------------------------------------
     1      (1,8,6)              -270.00000      WEL                                     
 ----------------------------------------------------------------------------------------




 DRN PACKAGE (DRN-0) FLOW RATES   PERIOD      2   STEP       12
 ----------------------------------------------------------------------------------------
   NUMBER   CELLID                    RATE       NAME                                    
 ----------------------------------------------------------------------------------------
     1      (1,1,1)               0.0000000      SURF                                    
     2      (1,1,2)               0.0000000      SURF                                    
     3      (1,1,3)               0.0000000      SURF                                    
     4      (1,1,4)               0.0000000      SURF                                    
     5      (1,1,5)               0.0000000      SURF                                    
     6      (1,1,6)               0.0000000      SURF                                    
     7      (1,1,7)               0.0000000      SURF                                    
     8      (1,1,8)               0.0000000      SURF                                    
     9      (1,1,9)               0.0000000      SURF                                    
     10     (1,1,10)              0.0000000      SURF                                    
     11     (1,2,1)               0.0000000      SURF                                    
     12     (1,2,2)               0.0000000      SURF                                    
     13     (1,2,3)               0.0000000      SURF                                    
     14     (1,2,4)               0.0000000      SURF                                    
     15     (1,2,5)               0.0000000      SURF                                    
     16     (1,2,6)               0.0000000      SURF                                    
     17     (1,2,7)               0.0000000      SURF                                    
     18     (1,2,8)               0.0000000      SURF                                    
     19     (1,2,9)               0.0000000      SURF                                    
     20     (1,2,10)              0.0000000      SURF                                    
     21     (1,3,1)               0.0000000      SURF                                    
     22     (1,3,2)               0.0000000      SURF                                    
     23     (1,3,3)               0.0000000      SURF                                    
     24     (1,3,4)               0.0000000      SURF                                    
     25     (1,3,5)               0.0000000      SURF                                    
     26     (1,3,6)               0.0000000      SURF                                    
     27     (1,3,7)               0.0000000      SURF                                    
     28     (1,3,8)               0.0000000      SURF                                    
     29     (1,3,9)               0.0000000      SURF                                    
     30     (1,3,10)              0.0000000      SURF                                    
     31     (1,4,1)               0.0000000      SURF                                    
     32     (1,4,2)               0.0000000      SURF                                    
     33     (1,4,3)               0.0000000      SURF                                    
     34     (1,4,4)               0.0000000      SURF                                    
     35     (1,4,5)               0.0000000      SURF                                    
     36     (1,4,6)               0.0000000      SURF                                    
     37     (1,4,7)               0.0000000      SURF                                    
     38     (1,4,8)               0.0000000      SURF                                    
     39     (1,4,9)               0.0000000      SURF                                    
     40     (1,4,10)              0.0000000      SURF                                    
     41     (1,5,1)               0.0000000      SURF                                    
     42     (1,5,2)               0.0000000      SURF                                    
     43     (1,5,3)               0.0000000      SURF                                    
     44     (1,5,4)               0.0000000      SURF                                    
     45     (1,5,5)               0.0000000      SURF                                    
     46     (1,5,6)               0.0000000      SURF                                    
     47     (1,5,7)               0.0000000      SURF                                    
     48     (1,5,8)               0.0000000      SURF                                    
     49     (1,5,9)               0.0000000      SURF                                    
     50     (1,5,10)              0.0000000      SURF                                    
     51     (1,6,1)               0.0000000      SURF                                    
     52     (1,6,2)               0.0000000      SURF                                    
     53     (1,6,3)               0.0000000      SURF                                    
     54     (1,6,4)               0.0000000      SURF                                    
     55     (1,6,5)               0.0000000      SURF                                    
     56     (1,6,6)              -1.45373633E-08 SURF                                    
     57     (1,6,7)               0.0000000      SURF                                    
     58     (1,6,8)               0.0000000      SURF                                    
     59     (1,6,9)               0.0000000      SURF                                    
     60     (1,6,10)              0.0000000      SURF                                    
     61     (1,7,1)               0.0000000      SURF                                    
     62     (1,7,2)               0.0000000      SURF                                    
     63     (1,7,3)               0.0000000      SURF                                    
     64     (1,7,4)               0.0000000      SURF                                    
     65     (1,7,5)               0.0000000      SURF                                    
     66     (1,7,6)               0.0000000      SURF                                    
     67     (1,7,7)               0.0000000      SURF                                    
     68     (1,7,8)               0.0000000      SURF                                    
     69     (1,7,9)               0.0000000      SURF                                    
     70     (1,7,10)              0.0000000      SURF                                    
     71     (1,8,1)               0.0000000      SURF                                    
     72     (1,8,2)               0.0000000      SURF                                    
     73     (1,8,3)               0.0000000      SURF                                    
     74     (1,8,4)               0.0000000      SURF                                    
     75     (1,8,5)               0.0000000      SURF                                    
     76     (1,8,6)               0.0000000      SURF                                    
     77     (1,8,7)               0.0000000      SURF                                    
     78     (1,8,8)               0.0000000      SURF                                    
     79     (1,8,9)               0.0000000      SURF                                    
     80     (1,8,10)              0.0000000      SURF                                    
     81     (1,9,1)               0.0000000      SURF                                    
     82     (1,9,2)               0.0000000      SURF                                    
     83     (1,9,3)               0.0000000      SURF                                    
     84     (1,9,4)               0.0000000      SURF                                    
     85     (1,9,5)               0.0000000      SURF                                    
     86     (1,9,6)               0.0000000      SURF                                    
     87     (1,9,7)               0.0000000      SURF                                    
     88     (1,9,8)               0.0000000      SURF                                    
     89     (1,9,9)               0.0000000      SURF                                    
     90     (1,9,10)              0.0000000      SURF                                    
     91     (1,10,1)              0.0000000      SURF                                    
     92     (1,10,2)              0.0000000      SURF                                    
     93     (1,10,3)              0.0000000      SURF                                    
     94     (1,10,4)              0.0000000      SURF                                    
     95     (1,10,5)              0.0000000      SURF                                    
     96     (1,10,6)             -3.66795575E-07 SURF                                    
     97     (1,10,7)              0.0000000      SURF                                    
     98     (1,10,8)              0.0000000      SURF                                    
     99     (1,10,9)              0.0000000      SURF                                    
    100     (1,10,10)             0.0000000      SURF                                    
    101     (1,11,1)              0.0000000      SURF                                    
    102     (1,11,2)              0.0000000      SURF                                    
    103     (1,11,3)              0.0000000      SURF                                    
    104     (1,11,4)              0.0000000      SURF                                    
    105     (1,11,5)              0.0000000      SURF                                    
    106     (1,11,6)              0.0000000      SURF                                    
    107     (1,11,7)              0.0000000      SURF                                    
    108     (1,11,8)              0.0000000      SURF                                    
    109     (1,11,9)              0.0000000      SURF                                    
    110     (1,11,10)             0.0000000      SURF                                    
    111     (1,12,1)              0.0000000      SURF                                    
    112     (1,12,2)              0.0000000      SURF                                    
    113     (1,12,3)              0.0000000      SURF                                    
    114     (1,12,4)              0.0000000      SURF                                    
    115     (1,12,5)              0.0000000      SURF                                    
    116     (1,12,6)              0.0000000      SURF                                    
    117     (1,12,7)              0.0000000      SURF                                    
    118     (1,12,8)              0.0000000      SURF                                    
    119     (1,12,9)              0.0000000      SURF                                    
    120     (1,12,10)             0.0000000      SURF                                    
    121     (1,13,1)              0.0000000      SURF                                    
    122     (1,13,2)              0.0000000      SURF                                    
    123     (1,13,3)              0.0000000      SURF                                    
    124     (1,13,4)              0.0000000      SURF                                    
    125     (1,13,5)              0.0000000      SURF                                    
    126     (1,13,6)              0.0000000      SURF                                    
    127     (1,13,7)              0.0000000      SURF                                    
    128     (1,13,8)              0.0000000      SURF                                    
    129     (1,13,9)              0.0000000      SURF                                    
    130     (1,13,10)             0.0000000      SURF                                    
    131     (1,14,1)              0.0000000      SURF                                    
    132     (1,14,2)              0.0000000      SURF                                    
    133     (1,14,3)              0.0000000      SURF                                    
    134     (1,14,4)              0.0000000      SURF                                    
    135     (1,14,5)              0.0000000      SURF                                    
    136     (1,14,6)              0.0000000      SURF                                    
    137     (1,14,7)              0.0000000      SURF                                    
    138     (1,14,8)              0.0000000      SURF                                    
    139     (1,14,9)              0.0000000      SURF                                    
    140     (1,14,10)             0.0000000      SURF                                    
    141     (1,15,1)              0.0000000      SURF                                    
    142     (1,15,2)              0.0000000      SURF                                    
    143     (1,15,3)              0.0000000      SURF                                    
    144     (1,15,4)              0.0000000      SURF                                    
    145     (1,15,5)              0.0000000      SURF                                    
    146     (1,15,6)              0.0000000      SURF                                    
    147     (1,15,7)              0.0000000      SURF                                    
    148     (1,15,8)              0.0000000      SURF                                    
    149     (1,15,9)              0.0000000      SURF                                    
    150     (1,15,10)             0.0000000      SURF                                    
 ----------------------------------------------------------------------------------------




 API PACKAGE (MAR) FLOW RATES   PERIOD      2   STEP       12
 -----------------------------------------------
   NUMBER   CELLID                    RATE      
 -----------------------------------------------
     1      (1,6,5)               29.293031     
     2      (1,6,6)               29.293031     
     3      (1,6,7)               29.293031     
     4      (1,10,5)              30.644124     
     5      (1,10,6)              30.644124     
     6      (1,10,7)              30.644124     
 -----------------------------------------------



1
  HEAD IN LAYER   1 AT END OF TIME STEP  12 IN STRESS PERIOD    2
  ---------------------------------------------------------------------------

            1           2           3           4           5           6           7           8           9          10
 ........................................................................................................................
   1   1.1435E-06  5.4113E-06  2.4163E-05  8.2566E-05  1.8848E-04  2.2724E-04  1.8848E-04  8.2587E-05  2.4315E-05  6.3771E-06
   2   6.5330E-06  3.3098E-05  1.5759E-04  5.7410E-04  1.3843E-03  1.6640E-03  1.3843E-03  5.7421E-04  1.5842E-04  3.8673E-05
   3   3.6058E-05  1.9537E-04  9.9285E-04  3.8699E-03  9.9283E-03  1.1854E-02  9.9283E-03  3.8704E-03  9.9723E-04  2.2643E-04
   4   1.6117E-04  9.3899E-04  5.1334E-03  2.1668E-02  6.0260E-02  7.0869E-02  6.0260E-02  2.1671E-02  5.1520E-03  1.0791E-03
   5   5.2546E-04  3.3130E-03  1.9698E-02  9.1817E-02  0.2880      0.3263      0.2880      9.1824E-02  1.9755E-02  3.7739E-03
   6   9.8245E-04  6.7157E-03  4.4008E-02  0.2366      0.9794       1.000      0.9794      0.2366      4.4109E-02  7.5841E-03
   7   2.4988E-04  1.3390E-03  5.7918E-03  8.5956E-03 -0.1054     -0.9481     -0.1054      8.5991E-03  5.8214E-03  1.5556E-03
   8  -3.5969E-04 -3.0526E-03 -2.5618E-02 -0.1899      -1.219      -7.038      -1.219     -0.1899     -2.5650E-02 -3.3770E-03
   9  -9.8006E-05 -5.9801E-04 -3.7615E-03 -2.3646E-02 -0.1607      -1.016     -0.1607     -2.3647E-02 -3.7726E-03 -6.8338E-04
  10   3.0709E-04  2.9198E-03  2.6068E-02  0.1899      0.9912       1.000      0.9912      0.1899      2.6093E-02  3.2005E-03
  11   1.4789E-04  1.2175E-03  9.3480E-03  5.6619E-02  0.2254      0.2476      0.2254      5.6620E-02  9.3612E-03  1.3510E-03
  12   3.8386E-05  2.8264E-04  1.9319E-03  1.0237E-02  3.5003E-02  3.9798E-02  3.5003E-02  1.0237E-02  1.9356E-03  3.1692E-04
  13   7.2402E-06  4.8438E-05  3.0033E-04  1.4290E-03  4.3677E-03  5.0538E-03  4.3678E-03  1.4291E-03  3.0108E-04  5.4841E-05
  14   1.1114E-06  6.8270E-06  3.8891E-05  1.6905E-04  4.7323E-04  5.5307E-04  4.7323E-04  1.6906E-04  3.9014E-05  7.8005E-06
  15   1.6356E-07  9.2424E-07  4.8558E-06  1.9414E-05  5.0334E-05  5.9193E-05  5.0334E-05  1.9416E-05  4.8752E-06  1.0662E-06

 HEAD WILL BE SAVED ON UNIT 1100 AT END OF TIME STEP   12, STRESS PERIOD    2


  VOLUME BUDGET FOR ENTIRE MODEL AT END OF TIME STEP   12, STRESS PERIOD   2
  ---------------------------------------------------------------------------------------------------

     CUMULATIVE VOLUME      L**3       RATES FOR THIS TIME STEP      L**3/T          PACKAGE NAME    
     ------------------                 ------------------------                     ----------------

           IN:                                      IN:
           ---                                      ---
              STO-SS =           9.9004                STO-SS =       5.9221E-02     STORAGE                          
              STO-SY =       25253.6881                STO-SY =         166.8262     STORAGE                          
                 WEL =           0.0000                   WEL =           0.0000     WEL-1                            
                 DRN =           0.0000                   DRN =           0.0000     DRN-0                            
                 API =       26276.4538                   API =         179.8115     MAR                              
                 CHD =       2.0279E-08                   CHD =           0.0000     CHD_0                            

            TOTAL IN =       51540.0423              TOTAL IN =         346.6969

          OUT:                                     OUT:
          ----                                     ----
              STO-SS =           9.8955                STO-SS =       3.9113E-02     STORAGE                          
              STO-SY =       19130.1468                STO-SY =          76.6578     STORAGE                          
                 WEL =       32400.0000                   WEL =         270.0000     WEL-1                            
                 DRN =       3.5884E-05                   DRN =       3.8133E-07     DRN-0                            
                 API =           0.0000                   API =           0.0000     MAR                              
                 CHD =       2.0705E-08                   CHD =           0.0000     CHD_0                            

           TOTAL OUT =       51540.0423             TOTAL OUT =         346.6969

            IN - OUT =      -4.3212E-08              IN - OUT =      -2.6437E-09

 PERCENT DISCREPANCY =          -0.00     PERCENT DISCREPANCY =          -0.00




         TIME SUMMARY AT END OF TIME STEP   12 IN STRESS PERIOD    2
                    SECONDS     MINUTES      HOURS       DAYS        YEARS
                    -----------------------------------------------------------
   TIME STEP LENGTH 8.64000E+05  14400.      240.00      10.000     2.73785E-02
 STRESS PERIOD TIME 1.03680E+07 1.72800E+05  2880.0      120.00     0.32854    
         TOTAL TIME 1.04544E+07 1.74240E+05  2904.0      121.00     0.33128    


end timestep


start timestep kper="2" kstp="13" mode="normal"

 UBDSV1 SAVING           STO-SS ON UNIT   1099 AT TIME STEP     13, STRESS PERIOD      2
 UBDSV1 SAVING           STO-SY ON UNIT   1099 AT TIME STEP     13, STRESS PERIOD      2
 UBDSV1 SAVING     FLOW-JA-FACE ON UNIT   1099 AT TIME STEP     13, STRESS PERIOD      2
 UBDSV06 SAVING       DATA-SPDIS IN MODEL GWF              PACKAGE NPF             CONNECTED TO MODEL GWF              PACKAGE NPF              ON UNIT   1099 AT TIME STEP     13, STRESS PERIOD      2
 UBDSV06 SAVING              WEL IN MODEL GWF              PACKAGE GWF             CONNECTED TO MODEL GWF              PACKAGE WEL-1            ON UNIT   1099 AT TIME STEP     13, STRESS PERIOD      2
 UBDSV06 SAVING              DRN IN MODEL GWF              PACKAGE GWF             CONNECTED TO MODEL GWF              PACKAGE DRN-0            ON UNIT   1099 AT TIME STEP     13, STRESS PERIOD      2
 UBDSV06 SAVING              API IN MODEL GWF              PACKAGE GWF             CONNECTED TO MODEL GWF              PACKAGE MAR              ON UNIT   1099 AT TIME STEP     13, STRESS PERIOD      2
 UBDSV06 SAVING              CHD IN MODEL GWF              PACKAGE GWF             CONNECTED TO MODEL GWF              PACKAGE CHD_0            ON UNIT   1099 AT TIME STEP     13, STRESS PERIOD      2

    CALCULATED INTERCELL FLOW FOR PERIOD 2 STEP 13
(1,1,1): (1,1,2) 6.599824E-05 (1,2,1) 8.331656E-05
(1,1,2): (1,1,1) -6.599824E-05 (1,1,3) 2.767222E-04 (1,2,2) 4.052173E-04
(1,1,3): (1,1,2) -2.767222E-04 (1,1,4) 8.201124E-04 (1,2,3) 1.857623E-03
(1,1,4): (1,1,3) -8.201124E-04 (1,1,5) 1.421403E-03 (1,2,4) 6.523431E-03
(1,1,5): (1,1,4) -1.421403E-03 (1,1,6) 5.320825E-04 (1,2,5) 1.526251E-02
(1,1,6): (1,1,5) -5.320825E-04 (1,1,7) -5.320325E-04 (1,2,6) 1.832683E-02
(1,1,7): (1,1,6) 5.320325E-04 (1,1,8) -1.421069E-03 (1,2,7) 1.526270E-02
(1,1,8): (1,1,7) 1.421069E-03 (1,1,9) -8.178732E-04 (1,2,8) 6.524935E-03
(1,1,9): (1,1,8) 8.178732E-04 (1,1,10) -2.635176E-04 (1,2,9) 1.868563E-03
(1,1,10): (1,1,9) 2.635176E-04 (1,2,10) 4.758928E-04
(1,2,1): (1,1,1) -8.331656E-05 (1,2,2) 3.878989E-04 (1,3,1) 4.334520E-04
(1,2,2): (1,1,2) -4.052173E-04 (1,2,1) -3.878989E-04 (1,2,3) 1.729126E-03 (1,3,2) 2.248241E-03
(1,2,3): (1,1,3) -1.857623E-03 (1,2,2) -1.729126E-03 (1,2,4) 5.485872E-03 (1,3,3) 1.097316E-02
(1,2,4): (1,1,4) -6.523431E-03 (1,2,3) -5.485872E-03 (1,2,5) 1.016004E-02 (1,3,4) 4.114237E-02
(1,2,5): (1,1,5) -1.526251E-02 (1,2,4) -1.016004E-02 (1,2,6) 3.595946E-03 (1,3,5) 0.102260
(1,2,6): (1,1,6) -1.832683E-02 (1,2,5) -3.595946E-03 (1,2,7) -3.595710E-03 (1,3,6) 0.121937
(1,2,7): (1,1,7) -1.526270E-02 (1,2,6) 3.595710E-03 (1,2,8) -1.015839E-02 (1,3,7) 0.102260
(1,2,8): (1,1,8) -6.524935E-03 (1,2,7) 1.015839E-02 (1,2,9) -5.474196E-03 (1,3,8) 4.114950E-02
(1,2,9): (1,1,9) -1.868563E-03 (1,2,8) 5.474196E-03 (1,2,10) -1.656185E-03 (1,3,9) 1.102759E-02
(1,2,10): (1,1,10) -4.758928E-04 (1,2,9) 1.656185E-03 (1,3,10) 2.619342E-03
(1,3,1): (1,2,1) -4.334520E-04 (1,3,2) 2.202687E-03 (1,4,1) 1.734192E-03
(1,3,2): (1,2,2) -2.248241E-03 (1,3,1) -2.202687E-03 (1,3,3) 1.045400E-02 (1,4,2) 9.696927E-03
(1,3,3): (1,2,3) -1.097316E-02 (1,3,2) -1.045400E-02 (1,3,4) 3.565342E-02 (1,4,3) 5.105464E-02
(1,3,4): (1,2,4) -4.114237E-02 (1,3,3) -3.565342E-02 (1,3,5) 7.125836E-02 (1,4,4) 0.208199
(1,3,5): (1,2,5) -0.102260 (1,3,4) -7.125836E-02 (1,3,6) 2.325385E-02 (1,4,5) 0.564812
(1,3,6): (1,2,6) -0.121937 (1,3,5) -2.325385E-02 (1,3,7) -2.325277E-02 (1,4,6) 0.662376
(1,3,7): (1,2,7) -0.102260 (1,3,6) 2.325277E-02 (1,3,8) -7.125042E-02 (1,4,7) 0.564815
(1,3,8): (1,2,8) -4.114950E-02 (1,3,7) 7.125042E-02 (1,3,9) -3.559443E-02 (1,4,8) 0.208225
(1,3,9): (1,2,9) -1.102759E-02 (1,3,8) 3.559443E-02 (1,3,10) -1.006435E-02 (1,4,9) 5.126149E-02
(1,3,10): (1,2,10) -2.619342E-03 (1,3,9) 1.006435E-02 (1,4,10) 1.119668E-02
(1,4,1): (1,3,1) -1.734192E-03 (1,4,2) 1.016546E-02 (1,5,1) 4.738111E-03
(1,4,2): (1,3,2) -9.696927E-03 (1,4,1) -1.016546E-02 (1,4,3) 5.181202E-02 (1,5,2) 2.896318E-02
(1,4,3): (1,3,3) -5.105464E-02 (1,4,2) -5.181202E-02 (1,4,4) 0.192774 (1,5,3) 0.167803
(1,4,4): (1,3,4) -0.208199 (1,4,3) -0.192774 (1,4,5) 0.427389 (1,5,4) 0.770185
(1,4,5): (1,3,5) -0.564812 (1,4,4) -0.427389 (1,4,6) 0.120301 (1,5,5) 2.44061
(1,4,6): (1,3,6) -0.662376 (1,4,5) -0.120301 (1,4,7) -0.120297 (1,5,6) 2.73679
(1,4,7): (1,3,7) -0.564815 (1,4,6) 0.120297 (1,4,8) -0.427358 (1,5,7) 2.44062
(1,4,8): (1,3,8) -0.208225 (1,4,7) 0.427358 (1,4,9) -0.192534 (1,5,8) 0.770248
(1,4,9): (1,3,9) -5.126149E-02 (1,4,8) 0.192534 (1,4,10) -5.012871E-02 (1,5,9) 0.168336
(1,4,10): (1,3,10) -1.119668E-02 (1,4,9) 5.012871E-02 (1,5,10) 3.310545E-02
(1,5,1): (1,4,1) -4.738111E-03 (1,5,2) 3.439184E-02 (1,6,1) 5.424043E-03
(1,5,2): (1,4,2) -2.896318E-02 (1,5,1) -3.439184E-02 (1,5,3) 0.190684 (1,6,2) 3.785370E-02
(1,5,3): (1,4,3) -0.167803 (1,5,2) -0.190684 (1,5,4) 0.795304 (1,6,3) 0.256509
(1,5,4): (1,4,4) -0.770185 (1,5,3) -0.795304 (1,5,5) 2.09239 (1,6,4) 1.48884
(1,5,5): (1,4,5) -2.44061 (1,5,4) -2.09239 (1,5,6) 0.410245 (1,6,5) 7.51358
(1,5,6): (1,4,6) -2.73679 (1,5,5) -0.410245 (1,5,7) -0.410234 (1,6,6) 7.20945
(1,5,7): (1,4,7) -2.44062 (1,5,6) 0.410234 (1,5,8) -2.09230 (1,6,7) 7.51359
(1,5,8): (1,4,8) -0.770248 (1,5,7) 2.09230 (1,5,9) -0.794589 (1,6,8) 1.48890
(1,5,9): (1,4,9) -0.168336 (1,5,8) 0.794589 (1,5,10) -0.185382 (1,6,9) 0.257068
(1,5,10): (1,4,10) -3.310545E-02 (1,5,9) 0.185382 (1,6,10) 4.266189E-02
(1,6,1): (1,5,1) -5.424043E-03 (1,6,2) 6.683088E-02 (1,7,1) -9.251890E-03
(1,6,2): (1,5,2) -3.785370E-02 (1,6,1) -6.683088E-02 (1,6,3) 0.409671 (1,7,2) -6.382958E-02
(1,6,3): (1,5,3) -0.256509 (1,6,2) -0.409671 (1,6,4) 2.03400 (1,7,3) -0.430995
(1,6,4): (1,5,4) -1.48884 (1,6,3) -2.03400 (1,6,5) 8.14823 (1,7,4) -2.49949
(1,6,5): (1,5,5) -7.51358 (1,6,4) -8.14823 (1,6,6) 0.124371 (1,7,5) -12.3837
(1,6,6): (1,5,6) -7.20945 (1,6,5) -0.124371 (1,6,7) -0.124353 (1,7,6) -22.3303
(1,6,7): (1,5,7) -7.51359 (1,6,6) 0.124353 (1,6,8) -8.14808 (1,7,7) -12.3837
(1,6,8): (1,5,8) -1.48890 (1,6,7) 8.14808 (1,6,9) -2.03277 (1,7,8) -2.49960
(1,6,9): (1,5,9) -0.257068 (1,6,8) 2.03277 (1,6,10) -0.400092 (1,7,9) -0.431963
(1,6,10): (1,5,10) -4.266189E-02 (1,6,9) 0.400092 (1,7,10) -7.201513E-02
(1,7,1): (1,6,1) 9.251890E-03 (1,7,2) 1.225156E-02 (1,8,1) -7.868330E-03
(1,7,2): (1,6,2) 6.382958E-02 (1,7,1) -1.225156E-02 (1,7,3) 4.258275E-02 (1,8,2) -5.335012E-02
(1,7,3): (1,6,3) 0.430995 (1,7,2) -4.258275E-02 (1,7,4) -2.536241E-02 (1,8,3) -0.361660
(1,7,4): (1,6,4) 2.49949 (1,7,3) 2.536241E-02 (1,7,5) -1.41567 (1,8,4) -2.17602
(1,7,5): (1,6,5) 12.3837 (1,7,4) 1.41567 (1,7,6) -8.79445 (1,8,5) -11.5792
(1,7,6): (1,6,6) 22.3303 (1,7,5) 8.79445 (1,7,7) 8.79446 (1,8,6) -56.3184
(1,7,7): (1,6,7) 12.3837 (1,7,6) -8.79446 (1,7,8) 1.41572 (1,8,7) -11.5792
(1,7,8): (1,6,8) 2.49960 (1,7,7) -1.41572 (1,7,9) 2.571190E-02 (1,8,8) -2.17612
(1,7,9): (1,6,9) 0.431963 (1,7,8) -2.571190E-02 (1,7,10) -4.025809E-02 (1,8,9) -0.362495
(1,7,10): (1,6,10) 7.201513E-02 (1,7,9) 4.025809E-02 (1,8,10) -6.028525E-02
(1,8,1): (1,7,1) 7.868330E-03 (1,8,2) -3.322258E-02 (1,9,1) 3.524942E-03
(1,8,2): (1,7,2) 5.335012E-02 (1,8,1) 3.322258E-02 (1,8,3) -0.265450 (1,9,2) 3.108795E-02
(1,8,3): (1,7,3) 0.361660 (1,8,2) 0.265450 (1,8,4) -1.83363 (1,9,3) 0.260425
(1,8,4): (1,7,4) 2.17602 (1,8,3) 1.83363 (1,8,5) -10.7462 (1,9,4) 1.85944
(1,8,5): (1,7,5) 11.5792 (1,8,4) 10.7462 (1,8,6) -52.0922 (1,9,5) 11.0420
(1,8,6): (1,7,6) 56.3184 (1,8,5) 52.0922 (1,8,7) 52.0922 (1,9,6) 55.4158
(1,8,7): (1,7,7) 11.5792 (1,8,6) -52.0922 (1,8,8) 10.7461 (1,9,7) 11.0420
(1,8,8): (1,7,8) 2.17612 (1,8,7) -10.7461 (1,8,9) 1.83323 (1,9,8) 1.85946
(1,8,9): (1,7,9) 0.362495 (1,8,8) -1.83323 (1,8,10) 0.261664 (1,9,9) 0.260720
(1,8,10): (1,7,10) 6.028525E-02 (1,8,9) -0.261664 (1,9,10) 3.429079E-02
(1,9,1): (1,8,1) -3.524942E-03 (1,9,2) -5.658989E-03 (1,10,1) 5.525893E-03
(1,9,2): (1,8,2) -3.108795E-02 (1,9,1) 5.658989E-03 (1,9,3) -3.610102E-02 (1,10,2) 4.468485E-02
(1,9,3): (1,8,3) -0.260425 (1,9,2) 3.610102E-02 (1,9,4) -0.235024 (1,10,3) 0.353079
(1,9,4): (1,8,4) -1.85944 (1,9,3) 0.235024 (1,9,5) -1.58904 (1,10,4) 2.38125
(1,9,5): (1,8,5) -11.0420 (1,9,4) 1.58904 (1,9,6) -8.85413 (1,10,5) 13.0203
(1,9,6): (1,8,6) -55.4158 (1,9,5) 8.85413 (1,9,7) 8.85413 (1,10,6) 22.9840
(1,9,7): (1,8,7) -11.0420 (1,9,6) -8.85413 (1,9,8) 1.58903 (1,10,7) 13.0203
(1,9,8): (1,8,8) -1.85946 (1,9,7) -1.58903 (1,9,9) 0.234902 (1,10,8) 2.38130
(1,9,9): (1,8,9) -0.260720 (1,9,8) -0.234902 (1,9,10) 3.523343E-02 (1,10,9) 0.353591
(1,9,10): (1,8,10) -3.429079E-02 (1,9,9) -3.523343E-02 (1,10,10) 4.964991E-02
(1,10,1): (1,9,1) -5.525893E-03 (1,10,2) 3.349591E-02 (1,11,1) -2.119835E-03
(1,10,2): (1,9,2) -4.468485E-02 (1,10,1) -3.349591E-02 (1,10,3) 0.272058 (1,11,2) -2.082169E-02
(1,10,3): (1,9,3) -0.353079 (1,10,2) -0.272058 (1,10,4) 1.78207 (1,11,3) -0.188785
(1,10,4): (1,9,4) -2.38125 (1,10,3) -1.78207 (1,10,5) 8.70209 (1,11,4) -1.40951
(1,10,5): (1,9,5) -13.0203 (1,10,4) -8.70209 (1,10,6) 3.465410E-02 (1,11,5) -8.23383
(1,10,6): (1,9,6) -22.9840 (1,10,5) -3.465410E-02 (1,10,7) -3.465130E-02 (1,11,6) -7.99276
(1,10,7): (1,9,7) -13.0203 (1,10,6) 3.465130E-02 (1,10,8) -8.70206 (1,11,7) -8.23383
(1,10,8): (1,9,8) -2.38130 (1,10,7) 8.70206 (1,10,9) -1.78172 (1,11,8) -1.40952
(1,10,9): (1,9,9) -0.353591 (1,10,8) 1.78172 (1,10,10) -0.268463 (1,11,9) -0.188946
(1,10,10): (1,9,10) -4.964991E-02 (1,10,9) 0.268463 (1,11,10) -2.277067E-02
(1,11,1): (1,10,1) 2.119835E-03 (1,11,2) 1.479168E-02 (1,12,1) -1.621621E-03
(1,11,2): (1,10,2) 2.082169E-02 (1,11,1) -1.479168E-02 (1,11,3) 0.103955 (1,12,2) -1.278377E-02
(1,11,3): (1,10,3) 0.188785 (1,11,2) -0.103955 (1,11,4) 0.556990 (1,12,3) -9.391511E-02
(1,11,4): (1,10,4) 1.40951 (1,11,3) -0.556990 (1,11,5) 1.85177 (1,12,4) -0.544503
(1,11,5): (1,10,5) 8.23383 (1,11,4) -1.85177 (1,11,6) 0.259707 (1,12,5) -2.10677
(1,11,6): (1,10,6) 7.99276 (1,11,5) -0.259707 (1,11,7) -0.259705 (1,12,6) -2.30906
(1,11,7): (1,10,7) 8.23383 (1,11,6) 0.259705 (1,11,8) -1.85175 (1,12,7) -2.10677
(1,11,8): (1,10,8) 1.40952 (1,11,7) 1.85175 (1,11,9) -0.556797 (1,12,8) -0.544517
(1,11,9): (1,10,9) 0.188946 (1,11,8) 0.556797 (1,11,10) -0.102157 (1,12,9) -9.406401E-02
(1,11,10): (1,10,10) 2.277067E-02 (1,11,9) 0.102157 (1,12,10) -1.424239E-02
(1,12,1): (1,11,1) 1.621621E-03 (1,12,2) 3.629314E-03 (1,13,1) -4.967265E-04
(1,12,2): (1,11,2) 1.278377E-02 (1,12,1) -3.629314E-03 (1,12,3) 2.281584E-02 (1,13,2) -3.471304E-03
(1,12,3): (1,11,3) 9.391511E-02 (1,12,2) -2.281584E-02 (1,12,4) 0.106346 (1,13,3) -2.253677E-02
(1,12,4): (1,11,4) 0.544503 (1,12,3) -0.106346 (1,12,5) 0.293270 (1,13,4) -0.113233
(1,12,5): (1,11,5) 2.10677 (1,12,4) -0.293270 (1,12,6) 6.124036E-02 (1,13,5) -0.368735
(1,12,6): (1,11,6) 2.30906 (1,12,5) -6.124036E-02 (1,12,7) -6.123972E-02 (1,13,6) -0.420644
(1,12,7): (1,11,7) 2.10677 (1,12,6) 6.123972E-02 (1,12,8) -0.293264 (1,13,7) -0.368736
(1,12,8): (1,11,8) 0.544517 (1,12,7) 0.293264 (1,12,9) -0.106289 (1,13,8) -0.113238
(1,12,9): (1,11,9) 9.406401E-02 (1,12,8) 0.106289 (1,12,10) -2.232850E-02 (1,13,9) -2.258669E-02
(1,12,10): (1,11,10) 1.424239E-02 (1,12,9) 2.232850E-02 (1,13,10) -3.912646E-03
(1,13,1): (1,12,1) 4.967265E-04 (1,13,2) 6.547320E-04 (1,14,1) -1.044159E-04
(1,13,2): (1,12,2) 3.471304E-03 (1,13,1) -6.547320E-04 (1,13,3) 3.750315E-03 (1,14,2) -6.623779E-04
(1,13,3): (1,12,3) 2.253677E-02 (1,13,2) -3.750315E-03 (1,13,4) 1.565650E-02 (1,14,3) -3.901412E-03
(1,13,4): (1,12,4) 0.113233 (1,13,3) -1.565650E-02 (1,13,5) 3.795853E-02 (1,14,4) -1.761252E-02
(1,13,5): (1,12,5) 0.368735 (1,13,4) -3.795853E-02 (1,13,6) 9.515309E-03 (1,14,5) -5.130866E-02
(1,13,6): (1,12,6) 0.420644 (1,13,5) -9.515309E-03 (1,13,7) -9.515155E-03 (1,14,6) -5.963228E-02
(1,13,7): (1,12,7) 0.368736 (1,13,6) 9.515155E-03 (1,13,8) -3.795716E-02 (1,14,7) -5.130878E-02
(1,13,8): (1,12,8) 0.113238 (1,13,7) 3.795716E-02 (1,13,9) -1.564439E-02 (1,14,8) -1.761376E-02
(1,13,9): (1,12,9) 2.258669E-02 (1,13,8) 1.564439E-02 (1,13,10) -3.654501E-03 (1,14,9) -3.912680E-03
(1,13,10): (1,12,10) 3.912646E-03 (1,13,9) 3.654501E-03 (1,14,10) -7.541622E-04
(1,14,1): (1,13,1) 1.044159E-04 (1,14,2) 9.677005E-05 (1,15,1) -1.713320E-05
(1,14,2): (1,13,2) 6.623779E-04 (1,14,1) -9.677005E-05 (1,14,3) 5.112861E-04 (1,15,2) -1.001622E-04
(1,14,3): (1,13,3) 3.901412E-03 (1,14,2) -5.112861E-04 (1,14,4) 1.945654E-03 (1,15,3) -5.442485E-04
(1,14,4): (1,13,4) 1.761252E-02 (1,14,3) -1.945654E-03 (1,14,5) 4.266881E-03 (1,15,4) -2.255371E-03
(1,14,5): (1,13,5) 5.130866E-02 (1,14,4) -4.266881E-03 (1,14,6) 1.195851E-03 (1,15,5) -6.051576E-03
(1,14,6): (1,13,6) 5.963228E-02 (1,14,5) -1.195851E-03 (1,14,7) -1.195820E-03 (1,15,6) -7.104239E-03
(1,14,7): (1,13,7) 5.130878E-02 (1,14,6) 1.195820E-03 (1,14,8) -4.266631E-03 (1,15,7) -6.051600E-03
(1,14,8): (1,13,8) 1.761376E-02 (1,14,7) 4.266631E-03 (1,14,9) -1.943581E-03 (1,15,8) -2.255601E-03
(1,14,9): (1,13,9) 3.912680E-03 (1,14,8) 1.943581E-03 (1,14,10) -4.959917E-04 (1,15,9) -5.462109E-04
(1,14,10): (1,13,10) 7.541622E-04 (1,14,9) 4.959917E-04 (1,15,10) -1.150763E-04
(1,15,1): (1,14,1) 1.713320E-05 (1,15,2) 1.374103E-05
(1,15,2): (1,14,2) 1.001622E-04 (1,15,1) -1.374103E-05 (1,15,3) 6.719996E-05
(1,15,3): (1,14,3) 5.442485E-04 (1,15,2) -6.719996E-05 (1,15,4) 2.345374E-04
(1,15,4): (1,14,4) 2.255371E-03 (1,15,3) -2.345374E-04 (1,15,5) 4.707439E-04
(1,15,5): (1,14,5) 6.051576E-03 (1,15,4) -4.707439E-04 (1,15,6) 1.432493E-04
(1,15,6): (1,14,6) 7.104239E-03 (1,15,5) -1.432493E-04 (1,15,7) -1.432430E-04
(1,15,7): (1,14,7) 6.051600E-03 (1,15,6) 1.432430E-04 (1,15,8) -4.706996E-04
(1,15,8): (1,14,8) 2.255601E-03 (1,15,7) 4.706996E-04 (1,15,9) -2.341964E-04
(1,15,9): (1,14,9) 5.462109E-04 (1,15,8) 2.341964E-04 (1,15,10) -6.485721E-05
(1,15,10): (1,14,10) 1.150763E-04 (1,15,9) 6.485721E-05

 WEL PACKAGE (WEL-1) FLOW RATES   PERIOD      2   STEP       13
 ----------------------------------------------------------------------------------------
   NUMBER   CELLID                    RATE       NAME                                    
 ----------------------------------------------------------------------------------------
     1      (1,8,6)              -270.00000      WEL                                     
 ----------------------------------------------------------------------------------------




 DRN PACKAGE (DRN-0) FLOW RATES   PERIOD      2   STEP       13
 ----------------------------------------------------------------------------------------
   NUMBER   CELLID                    RATE       NAME                                    
 ----------------------------------------------------------------------------------------
     1      (1,1,1)               0.0000000      SURF                                    
     2      (1,1,2)               0.0000000      SURF                                    
     3      (1,1,3)               0.0000000      SURF                                    
     4      (1,1,4)               0.0000000      SURF                                    
     5      (1,1,5)               0.0000000      SURF                                    
     6      (1,1,6)               0.0000000      SURF                                    
     7      (1,1,7)               0.0000000      SURF                                    
     8      (1,1,8)               0.0000000      SURF                                    
     9      (1,1,9)               0.0000000      SURF                                    
     10     (1,1,10)              0.0000000      SURF                                    
     11     (1,2,1)               0.0000000      SURF                                    
     12     (1,2,2)               0.0000000      SURF                                    
     13     (1,2,3)               0.0000000      SURF                                    
     14     (1,2,4)               0.0000000      SURF                                    
     15     (1,2,5)               0.0000000      SURF                                    
     16     (1,2,6)               0.0000000      SURF                                    
     17     (1,2,7)               0.0000000      SURF                                    
     18     (1,2,8)               0.0000000      SURF                                    
     19     (1,2,9)               0.0000000      SURF                                    
     20     (1,2,10)              0.0000000      SURF                                    
     21     (1,3,1)               0.0000000      SURF                                    
     22     (1,3,2)               0.0000000      SURF                                    
     23     (1,3,3)               0.0000000      SURF                                    
     24     (1,3,4)               0.0000000      SURF                                    
     25     (1,3,5)               0.0000000      SURF                                    
     26     (1,3,6)               0.0000000      SURF                                    
     27     (1,3,7)               0.0000000      SURF                                    
     28     (1,3,8)               0.0000000      SURF                                    
     29     (1,3,9)               0.0000000      SURF                                    
     30     (1,3,10)              0.0000000      SURF                                    
     31     (1,4,1)               0.0000000      SURF                                    
     32     (1,4,2)               0.0000000      SURF                                    
     33     (1,4,3)               0.0000000      SURF                                    
     34     (1,4,4)               0.0000000      SURF                                    
     35     (1,4,5)               0.0000000      SURF                                    
     36     (1,4,6)               0.0000000      SURF                                    
     37     (1,4,7)               0.0000000      SURF                                    
     38     (1,4,8)               0.0000000      SURF                                    
     39     (1,4,9)               0.0000000      SURF                                    
     40     (1,4,10)              0.0000000      SURF                                    
     41     (1,5,1)               0.0000000      SURF                                    
     42     (1,5,2)               0.0000000      SURF                                    
     43     (1,5,3)               0.0000000      SURF                                    
     44     (1,5,4)               0.0000000      SURF                                    
     45     (1,5,5)               0.0000000      SURF                                    
     46     (1,5,6)               0.0000000      SURF                                    
     47     (1,5,7)               0.0000000      SURF                                    
     48     (1,5,8)               0.0000000      SURF                                    
     49     (1,5,9)               0.0000000      SURF                                    
     50     (1,5,10)              0.0000000      SURF                                    
     51     (1,6,1)               0.0000000      SURF                                    
     52     (1,6,2)               0.0000000      SURF                                    
     53     (1,6,3)               0.0000000      SURF                                    
     54     (1,6,4)               0.0000000      SURF                                    
     55     (1,6,5)               0.0000000      SURF                                    
     56     (1,6,6)              -1.67638063E-08 SURF                                    
     57     (1,6,7)               0.0000000      SURF                                    
     58     (1,6,8)               0.0000000      SURF                                    
     59     (1,6,9)               0.0000000      SURF                                    
     60     (1,6,10)              0.0000000      SURF                                    
     61     (1,7,1)               0.0000000      SURF                                    
     62     (1,7,2)               0.0000000      SURF                                    
     63     (1,7,3)               0.0000000      SURF                                    
     64     (1,7,4)               0.0000000      SURF                                    
     65     (1,7,5)               0.0000000      SURF                                    
     66     (1,7,6)               0.0000000      SURF                                    
     67     (1,7,7)               0.0000000      SURF                                    
     68     (1,7,8)               0.0000000      SURF                                    
     69     (1,7,9)               0.0000000      SURF                                    
     70     (1,7,10)              0.0000000      SURF                                    
     71     (1,8,1)               0.0000000      SURF                                    
     72     (1,8,2)               0.0000000      SURF                                    
     73     (1,8,3)               0.0000000      SURF                                    
     74     (1,8,4)               0.0000000      SURF                                    
     75     (1,8,5)               0.0000000      SURF                                    
     76     (1,8,6)               0.0000000      SURF                                    
     77     (1,8,7)               0.0000000      SURF                                    
     78     (1,8,8)               0.0000000      SURF                                    
     79     (1,8,9)               0.0000000      SURF                                    
     80     (1,8,10)              0.0000000      SURF                                    
     81     (1,9,1)               0.0000000      SURF                                    
     82     (1,9,2)               0.0000000      SURF                                    
     83     (1,9,3)               0.0000000      SURF                                    
     84     (1,9,4)               0.0000000      SURF                                    
     85     (1,9,5)               0.0000000      SURF                                    
     86     (1,9,6)               0.0000000      SURF                                    
     87     (1,9,7)               0.0000000      SURF                                    
     88     (1,9,8)               0.0000000      SURF                                    
     89     (1,9,9)               0.0000000      SURF                                    
     90     (1,9,10)              0.0000000      SURF                                    
     91     (1,10,1)              0.0000000      SURF                                    
     92     (1,10,2)              0.0000000      SURF                                    
     93     (1,10,3)              0.0000000      SURF                                    
     94     (1,10,4)              0.0000000      SURF                                    
     95     (1,10,5)              0.0000000      SURF                                    
     96     (1,10,6)             -3.97398253E-07 SURF                                    
     97     (1,10,7)              0.0000000      SURF                                    
     98     (1,10,8)              0.0000000      SURF                                    
     99     (1,10,9)              0.0000000      SURF                                    
    100     (1,10,10)             0.0000000      SURF                                    
    101     (1,11,1)              0.0000000      SURF                                    
    102     (1,11,2)              0.0000000      SURF                                    
    103     (1,11,3)              0.0000000      SURF                                    
    104     (1,11,4)              0.0000000      SURF                                    
    105     (1,11,5)              0.0000000      SURF                                    
    106     (1,11,6)              0.0000000      SURF                                    
    107     (1,11,7)              0.0000000      SURF                                    
    108     (1,11,8)              0.0000000      SURF                                    
    109     (1,11,9)              0.0000000      SURF                                    
    110     (1,11,10)             0.0000000      SURF                                    
    111     (1,12,1)              0.0000000      SURF                                    
    112     (1,12,2)              0.0000000      SURF                                    
    113     (1,12,3)              0.0000000      SURF                                    
    114     (1,12,4)              0.0000000      SURF                                    
    115     (1,12,5)              0.0000000      SURF                                    
    116     (1,12,6)              0.0000000      SURF                                    
    117     (1,12,7)              0.0000000      SURF                                    
    118     (1,12,8)              0.0000000      SURF                                    
    119     (1,12,9)              0.0000000      SURF                                    
    120     (1,12,10)             0.0000000      SURF                                    
    121     (1,13,1)              0.0000000      SURF                                    
    122     (1,13,2)              0.0000000      SURF                                    
    123     (1,13,3)              0.0000000      SURF                                    
    124     (1,13,4)              0.0000000      SURF                                    
    125     (1,13,5)              0.0000000      SURF                                    
    126     (1,13,6)              0.0000000      SURF                                    
    127     (1,13,7)              0.0000000      SURF                                    
    128     (1,13,8)              0.0000000      SURF                                    
    129     (1,13,9)              0.0000000      SURF                                    
    130     (1,13,10)             0.0000000      SURF                                    
    131     (1,14,1)              0.0000000      SURF                                    
    132     (1,14,2)              0.0000000      SURF                                    
    133     (1,14,3)              0.0000000      SURF                                    
    134     (1,14,4)              0.0000000      SURF                                    
    135     (1,14,5)              0.0000000      SURF                                    
    136     (1,14,6)              0.0000000      SURF                                    
    137     (1,14,7)              0.0000000      SURF                                    
    138     (1,14,8)              0.0000000      SURF                                    
    139     (1,14,9)              0.0000000      SURF                                    
    140     (1,14,10)             0.0000000      SURF                                    
    141     (1,15,1)              0.0000000      SURF                                    
    142     (1,15,2)              0.0000000      SURF                                    
    143     (1,15,3)              0.0000000      SURF                                    
    144     (1,15,4)              0.0000000      SURF                                    
    145     (1,15,5)              0.0000000      SURF                                    
    146     (1,15,6)              0.0000000      SURF                                    
    147     (1,15,7)              0.0000000      SURF                                    
    148     (1,15,8)              0.0000000      SURF                                    
    149     (1,15,9)              0.0000000      SURF                                    
    150     (1,15,10)             0.0000000      SURF                                    
 ----------------------------------------------------------------------------------------




 API PACKAGE (MAR) FLOW RATES   PERIOD      2   STEP       13
 -----------------------------------------------
   NUMBER   CELLID                    RATE      
 -----------------------------------------------
     1      (1,6,5)               29.788510     
     2      (1,6,6)               29.788510     
     3      (1,6,7)               29.788510     
     4      (1,10,5)              31.046042     
     5      (1,10,6)              31.046042     
     6      (1,10,7)              31.046042     
 -----------------------------------------------



1
  HEAD IN LAYER   1 AT END OF TIME STEP  13 IN STRESS PERIOD    2
  ---------------------------------------------------------------------------

            1           2           3           4           5           6           7           8           9          10
 ........................................................................................................................
   1   1.8897E-06  8.4895E-06  3.6162E-05  1.1817E-04  2.6031E-04  3.1351E-04  2.6031E-04  1.1821E-04  3.6424E-05  1.0072E-05
   2   1.0221E-05  4.9011E-05  2.2192E-04  7.7046E-04  1.7863E-03  2.1458E-03  1.7863E-03  7.7065E-04  2.2328E-04  5.7661E-05
   3   5.3566E-05  2.7383E-04  1.3191E-03  4.8827E-03  1.2000E-02  1.4322E-02  1.2000E-02  4.8836E-03  1.3259E-03  3.1959E-04
   4   2.2698E-04  1.2434E-03  6.4213E-03  2.5649E-02  6.8099E-02  8.0034E-02  6.8100E-02  2.5653E-02  6.4487E-03  1.4391E-03
   5   7.0076E-04  4.1385E-03  2.3163E-02  0.1019      0.3049      0.3446      0.3049      0.1019      2.3243E-02  4.7481E-03
   6   1.2431E-03  7.9209E-03  4.8689E-02  0.2472      0.9887       1.000      0.9887      0.2472      4.8825E-02  9.0104E-03
   7   3.1802E-04  1.5430E-03  5.7988E-03  3.2640E-03 -0.1383      -1.030     -0.1383      3.2692E-03  5.8388E-03  1.8154E-03
   8  -4.6879E-04 -3.7912E-03 -3.0346E-02 -0.2143      -1.312      -7.309      -1.312     -0.2143     -3.0389E-02 -4.2120E-03
   9  -1.1629E-04 -6.8219E-04 -4.2925E-03 -2.7805E-02 -0.1872      -1.089     -0.1872     -2.7807E-02 -4.3063E-03 -7.8270E-04
  10   4.3628E-04  3.7846E-03  3.0907E-02  0.2055      0.9968       1.000      0.9968      0.2055      3.0944E-02  4.1802E-03
  11   2.2430E-04  1.7032E-03  1.2086E-02  6.7412E-02  0.2481      0.2734      0.2481      6.7414E-02  1.2107E-02  1.9041E-03
  12   6.2145E-05  4.2506E-04  2.7060E-03  1.3326E-02  4.2529E-02  4.8624E-02  4.2529E-02  1.3327E-02  2.7124E-03  4.8013E-04
  13   1.2473E-05  7.7945E-05  4.5296E-04  2.0183E-03  5.8119E-03  6.7628E-03  5.8120E-03  2.0184E-03  4.5432E-04  8.8889E-05
  14   2.0312E-06  1.1708E-05  6.2836E-05  2.5740E-04  6.8406E-04  8.0363E-04  6.8406E-04  2.5742E-04  6.3072E-05  1.3473E-05
  15   3.1786E-07  1.6920E-06  8.4119E-06  3.1866E-05  7.8940E-05  9.3264E-05  7.8940E-05  3.1871E-05  8.4511E-06  1.9654E-06

 HEAD WILL BE SAVED ON UNIT 1100 AT END OF TIME STEP   13, STRESS PERIOD    2


  VOLUME BUDGET FOR ENTIRE MODEL AT END OF TIME STEP   13, STRESS PERIOD   2
  ---------------------------------------------------------------------------------------------------

     CUMULATIVE VOLUME      L**3       RATES FOR THIS TIME STEP      L**3/T          PACKAGE NAME    
     ------------------                 ------------------------                     ----------------

           IN:                                      IN:
           ---                                      ---
              STO-SS =          10.4759                STO-SS =       5.7554E-02     STORAGE                          
              STO-SY =       26877.2399                STO-SY =         162.3552     STORAGE                          
                 WEL =           0.0000                   WEL =           0.0000     WEL-1                            
                 DRN =           0.0000                   DRN =           0.0000     DRN-0                            
                 API =       28101.4904                   API =         182.5037     MAR                              
                 CHD =       2.0279E-08                   CHD =           0.0000     CHD_0                            

            TOTAL IN =       54989.2062              TOTAL IN =         344.9164

          OUT:                                     OUT:
          ----                                     ----
              STO-SS =          10.2780                STO-SS =       3.8257E-02     STORAGE                          
              STO-SY =       19878.9281                STO-SY =          74.8781     STORAGE                          
                 WEL =       35100.0000                   WEL =         270.0000     WEL-1                            
                 DRN =       4.0026E-05                   DRN =       4.1416E-07     DRN-0                            
                 API =           0.0000                   API =           0.0000     MAR                              
                 CHD =       2.0705E-08                   CHD =           0.0000     CHD_0                            

           TOTAL OUT =       54989.2062             TOTAL OUT =         344.9164

            IN - OUT =      -7.0024E-08              IN - OUT =      -2.6807E-09

 PERCENT DISCREPANCY =          -0.00     PERCENT DISCREPANCY =          -0.00




         TIME SUMMARY AT END OF TIME STEP   13 IN STRESS PERIOD    2
                    SECONDS     MINUTES      HOURS       DAYS        YEARS
                    -----------------------------------------------------------
   TIME STEP LENGTH 8.64000E+05  14400.      240.00      10.000     2.73785E-02
 STRESS PERIOD TIME 1.12320E+07 1.87200E+05  3120.0      130.00     0.35592    
         TOTAL TIME 1.13184E+07 1.88640E+05  3144.0      131.00     0.35866    


end timestep


start timestep kper="2" kstp="14" mode="normal"

 UBDSV1 SAVING           STO-SS ON UNIT   1099 AT TIME STEP     14, STRESS PERIOD      2
 UBDSV1 SAVING           STO-SY ON UNIT   1099 AT TIME STEP     14, STRESS PERIOD      2
 UBDSV1 SAVING     FLOW-JA-FACE ON UNIT   1099 AT TIME STEP     14, STRESS PERIOD      2
 UBDSV06 SAVING       DATA-SPDIS IN MODEL GWF              PACKAGE NPF             CONNECTED TO MODEL GWF              PACKAGE NPF              ON UNIT   1099 AT TIME STEP     14, STRESS PERIOD      2
 UBDSV06 SAVING              WEL IN MODEL GWF              PACKAGE GWF             CONNECTED TO MODEL GWF              PACKAGE WEL-1            ON UNIT   1099 AT TIME STEP     14, STRESS PERIOD      2
 UBDSV06 SAVING              DRN IN MODEL GWF              PACKAGE GWF             CONNECTED TO MODEL GWF              PACKAGE DRN-0            ON UNIT   1099 AT TIME STEP     14, STRESS PERIOD      2
 UBDSV06 SAVING              API IN MODEL GWF              PACKAGE GWF             CONNECTED TO MODEL GWF              PACKAGE MAR              ON UNIT   1099 AT TIME STEP     14, STRESS PERIOD      2
 UBDSV06 SAVING              CHD IN MODEL GWF              PACKAGE GWF             CONNECTED TO MODEL GWF              PACKAGE CHD_0            ON UNIT   1099 AT TIME STEP     14, STRESS PERIOD      2

    CALCULATED INTERCELL FLOW FOR PERIOD 2 STEP 14
(1,1,1): (1,1,2) 9.833093E-05 (1,2,1) 1.240796E-04
(1,1,2): (1,1,1) -9.833093E-05 (1,1,3) 3.946483E-04 (1,2,2) 5.730692E-04
(1,1,3): (1,1,2) -3.946483E-04 (1,1,4) 1.116669E-03 (1,2,3) 2.507047E-03
(1,1,4): (1,1,3) -1.116669E-03 (1,1,5) 1.856655E-03 (1,2,4) 8.423013E-03
(1,1,5): (1,1,4) -1.856655E-03 (1,1,6) 7.082972E-04 (1,2,5) 1.902020E-02
(1,1,6): (1,1,5) -7.082972E-04 (1,1,7) -7.082075E-04 (1,2,6) 2.281414E-02
(1,1,7): (1,1,6) 7.082075E-04 (1,1,8) -1.856085E-03 (1,2,7) 1.902051E-02
(1,1,8): (1,1,7) 1.856085E-03 (1,1,9) -1.113013E-03 (1,2,8) 8.425444E-03
(1,1,9): (1,1,8) 1.113013E-03 (1,1,10) -3.740350E-04 (1,2,9) 2.523962E-03
(1,1,10): (1,1,9) 3.740350E-04 (1,2,10) 6.774716E-04
(1,2,1): (1,1,1) -1.240796E-04 (1,2,2) 5.473204E-04 (1,3,1) 6.148368E-04
(1,2,2): (1,1,2) -5.730692E-04 (1,2,1) -5.473204E-04 (1,2,3) 2.328623E-03 (1,3,2) 3.019831E-03
(1,2,3): (1,1,3) -2.507047E-03 (1,2,2) -2.328623E-03 (1,2,4) 7.032552E-03 (1,3,3) 1.402647E-02
(1,2,4): (1,1,4) -8.423013E-03 (1,2,3) -7.032552E-03 (1,2,5) 1.245315E-02 (1,3,4) 5.016917E-02
(1,2,5): (1,1,5) -1.902020E-02 (1,2,4) -1.245315E-02 (1,2,6) 4.501545E-03 (1,3,5) 0.120004
(1,2,6): (1,1,6) -2.281414E-02 (1,2,5) -4.501545E-03 (1,2,7) -4.501142E-03 (1,3,6) 0.142961
(1,2,7): (1,1,7) -1.902051E-02 (1,2,6) 4.501142E-03 (1,2,8) -1.245046E-02 (1,3,7) 0.120005
(1,2,8): (1,1,8) -8.425444E-03 (1,2,7) 1.245046E-02 (1,2,9) -7.014411E-03 (1,3,8) 5.018021E-02
(1,2,9): (1,1,9) -2.523962E-03 (1,2,8) 7.014411E-03 (1,2,10) -2.220520E-03 (1,3,9) 1.410684E-02
(1,2,10): (1,1,10) -6.774716E-04 (1,2,9) 2.220520E-03 (1,3,10) 3.541996E-03
(1,3,1): (1,2,1) -6.148368E-04 (1,3,2) 2.952313E-03 (1,4,1) 2.330066E-03
(1,3,2): (1,2,2) -3.019831E-03 (1,3,1) -2.952313E-03 (1,3,3) 1.333519E-02 (1,4,2) 1.230352E-02
(1,3,3): (1,2,3) -1.402647E-02 (1,3,2) -1.333519E-02 (1,3,4) 4.317273E-02 (1,4,3) 6.149023E-02
(1,3,4): (1,2,4) -5.016917E-02 (1,3,3) -4.317273E-02 (1,3,5) 8.226162E-02 (1,4,4) 0.238671
(1,3,5): (1,2,5) -0.120004 (1,3,4) -8.226162E-02 (1,3,6) 2.743233E-02 (1,4,5) 0.621969
(1,3,6): (1,2,6) -0.142961 (1,3,5) -2.743233E-02 (1,3,7) -2.743056E-02 (1,4,6) 0.728307
(1,3,7): (1,2,7) -0.120005 (1,3,6) 2.743056E-02 (1,3,8) -8.224926E-02 (1,4,7) 0.621974
(1,3,8): (1,2,8) -5.018021E-02 (1,3,7) 8.224926E-02 (1,3,9) -4.308522E-02 (1,4,8) 0.238709
(1,3,9): (1,2,9) -1.410684E-02 (1,3,8) 4.308522E-02 (1,3,10) -1.278523E-02 (1,4,9) 6.178040E-02
(1,3,10): (1,2,10) -3.541996E-03 (1,3,9) 1.278523E-02 (1,4,10) 1.430270E-02
(1,4,1): (1,3,1) -2.330066E-03 (1,4,2) 1.292583E-02 (1,5,1) 5.994563E-03
(1,4,2): (1,3,2) -1.230352E-02 (1,4,1) -1.292583E-02 (1,4,3) 6.252240E-02 (1,5,2) 3.451620E-02
(1,4,3): (1,3,3) -6.149023E-02 (1,4,2) -6.252240E-02 (1,4,4) 0.220322 (1,5,3) 0.189499
(1,4,4): (1,3,4) -0.238671 (1,4,3) -0.220322 (1,4,5) 0.464968 (1,5,4) 0.827820
(1,4,5): (1,3,5) -0.621969 (1,4,4) -0.464968 (1,4,6) 0.133153 (1,5,5) 2.52725
(1,4,6): (1,3,6) -0.728307 (1,4,5) -0.133153 (1,4,7) -0.133147 (1,5,6) 2.82081
(1,4,7): (1,3,7) -0.621974 (1,4,6) 0.133147 (1,4,8) -0.464922 (1,5,7) 2.52726
(1,4,8): (1,3,8) -0.238709 (1,4,7) 0.464922 (1,4,9) -0.219981 (1,5,8) 0.827908
(1,4,9): (1,3,9) -6.178040E-02 (1,4,8) 0.219981 (1,4,10) -6.026222E-02 (1,5,9) 0.190205
(1,4,10): (1,3,10) -1.430270E-02 (1,4,9) 6.026222E-02 (1,5,10) 3.971672E-02
(1,5,1): (1,4,1) -5.994563E-03 (1,5,2) 4.144944E-02 (1,6,1) 6.272794E-03
(1,5,2): (1,4,2) -3.451620E-02 (1,5,1) -4.144944E-02 (1,5,3) 0.217549 (1,6,2) 4.123332E-02
(1,5,3): (1,4,3) -0.189499 (1,5,2) -0.217549 (1,5,4) 0.858836 (1,6,3) 0.265796
(1,5,4): (1,4,4) -0.827820 (1,5,3) -0.858836 (1,5,5) 2.15857 (1,6,4) 1.48766
(1,5,5): (1,4,5) -2.52725 (1,5,4) -2.15857 (1,5,6) 0.420377 (1,6,5) 7.44565
(1,5,6): (1,4,6) -2.82081 (1,5,5) -0.420377 (1,5,7) -0.420361 (1,6,6) 7.02457
(1,5,7): (1,4,7) -2.52726 (1,5,6) 0.420361 (1,5,8) -2.15845 (1,6,7) 7.44566
(1,5,8): (1,4,8) -0.827908 (1,5,7) 2.15845 (1,5,9) -0.857871 (1,6,8) 1.48774
(1,5,9): (1,4,9) -0.190205 (1,5,8) 0.857871 (1,5,10) -0.210781 (1,6,9) 0.266475
(1,5,10): (1,4,10) -3.971672E-02 (1,5,9) 0.210781 (1,6,10) 4.675394E-02
(1,6,1): (1,5,1) -6.272794E-03 (1,6,2) 7.642225E-02 (1,7,1) -1.144406E-02
(1,6,2): (1,5,2) -4.123332E-02 (1,6,1) -7.642225E-02 (1,6,3) 0.442504 (1,7,2) -7.456252E-02
(1,6,3): (1,5,3) -0.265796 (1,6,2) -0.442504 (1,6,4) 2.08764 (1,7,3) -0.479185
(1,6,4): (1,5,4) -1.48766 (1,6,3) -2.08764 (1,6,5) 8.15066 (1,7,4) -2.66582
(1,6,5): (1,5,5) -7.44565 (1,6,4) -8.15066 (1,6,6) 2.375715E-02 (1,7,5) -12.8652
(1,6,6): (1,5,6) -7.02457 (1,6,5) -2.375715E-02 (1,6,7) -2.373068E-02 (1,7,6) -23.1960
(1,6,7): (1,5,7) -7.44566 (1,6,6) 2.373068E-02 (1,6,8) -8.15045 (1,7,7) -12.8652
(1,6,8): (1,5,8) -1.48774 (1,6,7) 8.15045 (1,6,9) -2.08605 (1,7,8) -2.66597
(1,6,9): (1,5,9) -0.266475 (1,6,8) 2.08605 (1,6,10) -0.430859 (1,7,9) -0.480438
(1,6,10): (1,5,10) -4.675394E-02 (1,6,9) 0.430859 (1,7,10) -8.461821E-02
(1,7,1): (1,6,1) 1.144406E-02 (1,7,2) 1.330262E-02 (1,8,1) -9.894502E-03
(1,7,2): (1,6,2) 7.456252E-02 (1,7,1) -1.330262E-02 (1,7,3) 3.802855E-02 (1,8,2) -6.341251E-02
(1,7,3): (1,6,3) 0.479185 (1,7,2) -3.802855E-02 (1,7,4) -8.710687E-02 (1,8,3) -0.409229
(1,7,4): (1,6,4) 2.66582 (1,7,3) 8.710687E-02 (1,7,5) -1.68714 (1,8,4) -2.35580
(1,7,5): (1,6,5) 12.8652 (1,7,4) 1.68714 (1,7,6) -9.20670 (1,8,5) -12.0876
(1,7,6): (1,6,6) 23.1960 (1,7,5) 9.20670 (1,7,7) 9.20671 (1,8,6) -57.3559
(1,7,7): (1,6,7) 12.8652 (1,7,6) -9.20671 (1,7,8) 1.68720 (1,8,7) -12.0876
(1,7,8): (1,6,8) 2.66597 (1,7,7) -1.68720 (1,7,9) 8.756102E-02 (1,8,8) -2.35593
(1,7,9): (1,6,9) 0.480438 (1,7,8) -8.756102E-02 (1,7,10) -3.523356E-02 (1,8,9) -0.410328
(1,7,10): (1,6,10) 8.461821E-02 (1,7,9) 3.523356E-02 (1,8,10) -7.207247E-02
(1,8,1): (1,7,1) 9.894502E-03 (1,8,2) -4.020474E-02 (1,9,1) 4.621453E-03
(1,8,2): (1,7,2) 6.341251E-02 (1,8,1) 4.020474E-02 (1,8,3) -0.307452 (1,9,2) 3.841627E-02
(1,8,3): (1,7,3) 0.409229 (1,8,2) 0.307452 (1,8,4) -2.02741 (1,9,3) 0.304010
(1,8,4): (1,7,4) 2.35580 (1,8,3) 2.02741 (1,8,5) -11.3524 (1,9,4) 2.05264
(1,8,5): (1,7,5) 12.0876 (1,8,4) 11.3524 (1,8,6) -52.9446 (1,9,5) 11.6081
(1,8,6): (1,7,6) 57.3559 (1,8,5) 52.9446 (1,8,7) 52.9446 (1,9,6) 56.5560
(1,8,7): (1,7,7) 12.0876 (1,8,6) -52.9446 (1,8,8) 11.3524 (1,9,7) 11.6081
(1,8,8): (1,7,8) 2.35593 (1,8,7) -11.3524 (1,8,9) 2.02689 (1,9,8) 2.05267
(1,8,9): (1,7,9) 0.410328 (1,8,8) -2.02689 (1,8,10) 0.302672 (1,9,9) 0.304415
(1,8,10): (1,7,10) 7.207247E-02 (1,8,9) -0.302672 (1,9,10) 4.259326E-02
(1,9,1): (1,8,1) -4.621453E-03 (1,9,2) -6.409325E-03 (1,10,1) 7.283625E-03
(1,9,2): (1,8,2) -3.841627E-02 (1,9,1) 6.409325E-03 (1,9,3) -4.184915E-02 (1,10,2) 5.509429E-02
(1,9,3): (1,8,3) -0.304010 (1,9,2) 4.184915E-02 (1,9,4) -0.279218 (1,10,3) 0.407581
(1,9,4): (1,8,4) -2.05264 (1,9,3) 0.279218 (1,9,5) -1.81990 (1,10,4) 2.57444
(1,9,5): (1,8,5) -11.6081 (1,9,4) 1.81990 (1,9,6) -9.25185 (1,10,5) 13.3703
(1,9,6): (1,8,6) -56.5560 (1,9,5) 9.25185 (1,9,7) 9.25185 (1,10,6) 23.7269
(1,9,7): (1,8,7) -11.6081 (1,9,6) -9.25185 (1,9,8) 1.81988 (1,10,7) 13.3704
(1,9,8): (1,8,8) -2.05267 (1,9,7) -1.81988 (1,9,9) 0.279074 (1,10,8) 2.57452
(1,9,9): (1,8,9) -0.304415 (1,9,8) -0.279074 (1,9,10) 4.085434E-02 (1,10,9) 0.408291
(1,9,10): (1,8,10) -4.259326E-02 (1,9,9) -4.085434E-02 (1,10,10) 6.159671E-02
(1,10,1): (1,9,1) -7.283625E-03 (1,10,2) 4.139520E-02 (1,11,1) -2.690324E-03
(1,10,2): (1,9,2) -5.509429E-02 (1,10,1) -4.139520E-02 (1,10,3) 0.310315 (1,11,2) -2.447731E-02
(1,10,3): (1,9,3) -0.407581 (1,10,2) -0.310315 (1,10,4) 1.87394 (1,11,3) -0.206455
(1,10,4): (1,9,4) -2.57444 (1,10,3) -1.87394 (1,10,5) 8.59066 (1,11,4) -1.43992
(1,10,5): (1,9,5) -13.3703 (1,10,4) -8.59066 (1,10,6) -3.729827E-02 (1,11,5) -8.04376
(1,10,6): (1,9,6) -23.7269 (1,10,5) 3.729827E-02 (1,10,7) 3.731791E-02 (1,11,6) -7.69685
(1,10,7): (1,9,7) -13.3704 (1,10,6) -3.731791E-02 (1,10,8) -8.59062 (1,11,7) -8.04377
(1,10,8): (1,9,8) -2.57452 (1,10,7) 8.59062 (1,10,9) -1.87344 (1,11,8) -1.43993
(1,10,9): (1,9,9) -0.408291 (1,10,8) 1.87344 (1,10,10) -0.305503 (1,11,9) -0.206673
(1,10,10): (1,9,10) -6.159671E-02 (1,10,9) 0.305503 (1,11,10) -2.693516E-02
(1,11,1): (1,10,1) 2.690324E-03 (1,11,2) 1.960453E-02 (1,12,1) -2.287749E-03
(1,11,2): (1,10,2) 2.447731E-02 (1,11,1) -1.960453E-02 (1,11,3) 0.128149 (1,12,2) -1.674906E-02
(1,11,3): (1,10,3) 0.206455 (1,11,2) -0.128149 (1,11,4) 0.635366 (1,12,3) -0.114624
(1,11,4): (1,10,4) 1.43992 (1,11,3) -0.635366 (1,11,5) 1.95747 (1,12,4) -0.618589
(1,11,5): (1,10,5) 8.04376 (1,11,4) -1.95747 (1,11,6) 0.287598 (1,12,5) -2.24340
(1,11,6): (1,10,6) 7.69685 (1,11,5) -0.287598 (1,11,7) -0.287594 (1,12,6) -2.46058
(1,11,7): (1,10,7) 8.04377 (1,11,6) 0.287594 (1,11,8) -1.95744 (1,12,7) -2.24340
(1,11,8): (1,10,8) 1.43993 (1,11,7) 1.95744 (1,11,9) -0.635072 (1,12,8) -0.618611
(1,11,9): (1,10,9) 0.206673 (1,11,8) 0.635072 (1,11,10) -0.125590 (1,12,9) -0.114847
(1,11,10): (1,10,10) 2.693516E-02 (1,11,9) 0.125590 (1,12,10) -1.879160E-02
(1,12,1): (1,11,1) 2.287749E-03 (1,12,2) 5.142815E-03 (1,13,1) -7.519417E-04
(1,12,2): (1,11,2) 1.674906E-02 (1,12,1) -5.142815E-03 (1,12,3) 3.026094E-02 (1,13,2) -4.906572E-03
(1,12,3): (1,11,3) 0.114624 (1,12,2) -3.026094E-02 (1,12,4) 0.131318 (1,13,3) -2.984049E-02
(1,12,4): (1,11,4) 0.618589 (1,12,3) -0.131318 (1,12,5) 0.337034 (1,13,4) -0.140340
(1,12,5): (1,11,5) 2.24340 (1,12,4) -0.337034 (1,12,6) 7.474402E-02 (1,13,5) -0.430317
(1,12,6): (1,11,6) 2.46058 (1,12,5) -7.474402E-02 (1,12,7) -7.474284E-02 (1,13,6) -0.492742
(1,12,7): (1,11,7) 2.24340 (1,12,6) 7.474284E-02 (1,12,8) -0.337024 (1,13,7) -0.430318
(1,12,8): (1,11,8) 0.618611 (1,12,7) 0.337024 (1,12,9) -0.131226 (1,13,8) -0.140349
(1,12,9): (1,11,9) 0.114847 (1,12,8) 0.131226 (1,12,10) -2.952378E-02 (1,13,9) -2.992017E-02
(1,12,10): (1,11,10) 1.879160E-02 (1,12,9) 2.952378E-02 (1,13,10) -5.569571E-03
(1,13,1): (1,12,1) 7.519417E-04 (1,13,2) 9.881750E-04 (1,14,1) -1.682710E-04
(1,13,2): (1,12,2) 4.906572E-03 (1,13,1) -9.881750E-04 (1,13,3) 5.326920E-03 (1,14,2) -1.001406E-03
(1,13,3): (1,12,3) 2.984049E-02 (1,13,2) -5.326920E-03 (1,13,4) 2.082845E-02 (1,14,3) -5.553782E-03
(1,13,4): (1,12,4) 0.140340 (1,13,3) -2.082845E-02 (1,13,5) 4.732423E-02 (1,14,4) -2.360728E-02
(1,13,5): (1,12,5) 0.430317 (1,13,4) -4.732423E-02 (1,13,6) 1.257530E-02 (1,14,5) -6.519655E-02
(1,13,6): (1,12,6) 0.492742 (1,13,5) -1.257530E-02 (1,13,7) -1.257501E-02 (1,14,6) -7.608047E-02
(1,13,7): (1,12,7) 0.430318 (1,13,6) 1.257501E-02 (1,13,8) -4.732178E-02 (1,14,7) -6.519678E-02
(1,13,8): (1,12,8) 0.140349 (1,13,7) 4.732178E-02 (1,13,9) -2.080789E-02 (1,14,8) -2.360950E-02
(1,13,9): (1,12,9) 2.992017E-02 (1,13,8) 2.080789E-02 (1,13,10) -5.173276E-03 (1,14,9) -5.572843E-03
(1,13,10): (1,12,10) 5.569571E-03 (1,13,9) 5.173276E-03 (1,14,10) -1.148171E-03
(1,14,1): (1,13,1) 1.682710E-04 (1,14,2) 1.550401E-04 (1,15,1) -2.920192E-05
(1,14,2): (1,13,2) 1.001406E-03 (1,14,1) -1.550401E-04 (1,14,3) 7.745546E-04 (1,15,2) -1.608297E-04
(1,14,3): (1,13,3) 5.553782E-03 (1,14,2) -7.745546E-04 (1,14,4) 2.775448E-03 (1,15,3) -8.266635E-04
(1,14,4): (1,13,4) 2.360728E-02 (1,14,3) -2.775448E-03 (1,14,5) 5.742383E-03 (1,15,4) -3.243091E-03
(1,14,5): (1,13,5) 6.519655E-02 (1,14,4) -5.742383E-03 (1,14,6) 1.698280E-03 (1,15,5) -8.301561E-03
(1,14,6): (1,13,6) 7.608047E-02 (1,14,5) -1.698280E-03 (1,14,7) -1.698219E-03 (1,15,6) -9.781347E-03
(1,14,7): (1,13,7) 6.519678E-02 (1,14,6) 1.698219E-03 (1,14,8) -5.741912E-03 (1,15,7) -8.301609E-03
(1,14,8): (1,13,8) 2.360950E-02 (1,14,7) 5.741912E-03 (1,14,9) -2.771738E-03 (1,15,8) -3.243523E-03
(1,14,9): (1,13,9) 5.572843E-03 (1,14,8) 2.771738E-03 (1,14,10) -7.486221E-04 (1,15,9) -8.301614E-04
(1,14,10): (1,13,10) 1.148171E-03 (1,14,9) 7.486221E-04 (1,15,10) -1.860501E-04
(1,15,1): (1,14,1) 2.920192E-05 (1,15,2) 2.341239E-05
(1,15,2): (1,14,2) 1.608297E-04 (1,15,1) -2.341239E-05 (1,15,3) 1.087211E-04
(1,15,3): (1,14,3) 8.266635E-04 (1,15,2) -1.087211E-04 (1,15,4) 3.590325E-04
(1,15,4): (1,14,4) 3.243091E-03 (1,15,3) -3.590325E-04 (1,15,5) 6.840430E-04
(1,15,5): (1,14,5) 8.301561E-03 (1,15,4) -6.840430E-04 (1,15,6) 2.186133E-04
(1,15,6): (1,14,6) 9.781347E-03 (1,15,5) -2.186133E-04 (1,15,7) -2.186009E-04
(1,15,7): (1,14,7) 8.301609E-03 (1,15,6) 2.186009E-04 (1,15,8) -6.839554E-04
(1,15,8): (1,14,8) 3.243523E-03 (1,15,7) 6.839554E-04 (1,15,9) -3.583879E-04
(1,15,9): (1,14,9) 8.301614E-04 (1,15,8) 3.583879E-04 (1,15,10) -1.045113E-04
(1,15,10): (1,14,10) 1.860501E-04 (1,15,9) 1.045113E-04

 WEL PACKAGE (WEL-1) FLOW RATES   PERIOD      2   STEP       14
 ----------------------------------------------------------------------------------------
   NUMBER   CELLID                    RATE       NAME                                    
 ----------------------------------------------------------------------------------------
     1      (1,8,6)              -270.00000      WEL                                     
 ----------------------------------------------------------------------------------------




 DRN PACKAGE (DRN-0) FLOW RATES   PERIOD      2   STEP       14
 ----------------------------------------------------------------------------------------
   NUMBER   CELLID                    RATE       NAME                                    
 ----------------------------------------------------------------------------------------
     1      (1,1,1)               0.0000000      SURF                                    
     2      (1,1,2)               0.0000000      SURF                                    
     3      (1,1,3)               0.0000000      SURF                                    
     4      (1,1,4)               0.0000000      SURF                                    
     5      (1,1,5)               0.0000000      SURF                                    
     6      (1,1,6)               0.0000000      SURF                                    
     7      (1,1,7)               0.0000000      SURF                                    
     8      (1,1,8)               0.0000000      SURF                                    
     9      (1,1,9)               0.0000000      SURF                                    
     10     (1,1,10)              0.0000000      SURF                                    
     11     (1,2,1)               0.0000000      SURF                                    
     12     (1,2,2)               0.0000000      SURF                                    
     13     (1,2,3)               0.0000000      SURF                                    
     14     (1,2,4)               0.0000000      SURF                                    
     15     (1,2,5)               0.0000000      SURF                                    
     16     (1,2,6)               0.0000000      SURF                                    
     17     (1,2,7)               0.0000000      SURF                                    
     18     (1,2,8)               0.0000000      SURF                                    
     19     (1,2,9)               0.0000000      SURF                                    
     20     (1,2,10)              0.0000000      SURF                                    
     21     (1,3,1)               0.0000000      SURF                                    
     22     (1,3,2)               0.0000000      SURF                                    
     23     (1,3,3)               0.0000000      SURF                                    
     24     (1,3,4)               0.0000000      SURF                                    
     25     (1,3,5)               0.0000000      SURF                                    
     26     (1,3,6)               0.0000000      SURF                                    
     27     (1,3,7)               0.0000000      SURF                                    
     28     (1,3,8)               0.0000000      SURF                                    
     29     (1,3,9)               0.0000000      SURF                                    
     30     (1,3,10)              0.0000000      SURF                                    
     31     (1,4,1)               0.0000000      SURF                                    
     32     (1,4,2)               0.0000000      SURF                                    
     33     (1,4,3)               0.0000000      SURF                                    
     34     (1,4,4)               0.0000000      SURF                                    
     35     (1,4,5)               0.0000000      SURF                                    
     36     (1,4,6)               0.0000000      SURF                                    
     37     (1,4,7)               0.0000000      SURF                                    
     38     (1,4,8)               0.0000000      SURF                                    
     39     (1,4,9)               0.0000000      SURF                                    
     40     (1,4,10)              0.0000000      SURF                                    
     41     (1,5,1)               0.0000000      SURF                                    
     42     (1,5,2)               0.0000000      SURF                                    
     43     (1,5,3)               0.0000000      SURF                                    
     44     (1,5,4)               0.0000000      SURF                                    
     45     (1,5,5)               0.0000000      SURF                                    
     46     (1,5,6)               0.0000000      SURF                                    
     47     (1,5,7)               0.0000000      SURF                                    
     48     (1,5,8)               0.0000000      SURF                                    
     49     (1,5,9)               0.0000000      SURF                                    
     50     (1,5,10)              0.0000000      SURF                                    
     51     (1,6,1)               0.0000000      SURF                                    
     52     (1,6,2)               0.0000000      SURF                                    
     53     (1,6,3)               0.0000000      SURF                                    
     54     (1,6,4)               0.0000000      SURF                                    
     55     (1,6,5)               0.0000000      SURF                                    
     56     (1,6,6)              -2.53203325E-09 SURF                                    
     57     (1,6,7)               0.0000000      SURF                                    
     58     (1,6,8)               0.0000000      SURF                                    
     59     (1,6,9)               0.0000000      SURF                                    
     60     (1,6,10)              0.0000000      SURF                                    
     61     (1,7,1)               0.0000000      SURF                                    
     62     (1,7,2)               0.0000000      SURF                                    
     63     (1,7,3)               0.0000000      SURF                                    
     64     (1,7,4)               0.0000000      SURF                                    
     65     (1,7,5)               0.0000000      SURF                                    
     66     (1,7,6)               0.0000000      SURF                                    
     67     (1,7,7)               0.0000000      SURF                                    
     68     (1,7,8)               0.0000000      SURF                                    
     69     (1,7,9)               0.0000000      SURF                                    
     70     (1,7,10)              0.0000000      SURF                                    
     71     (1,8,1)               0.0000000      SURF                                    
     72     (1,8,2)               0.0000000      SURF                                    
     73     (1,8,3)               0.0000000      SURF                                    
     74     (1,8,4)               0.0000000      SURF                                    
     75     (1,8,5)               0.0000000      SURF                                    
     76     (1,8,6)               0.0000000      SURF                                    
     77     (1,8,7)               0.0000000      SURF                                    
     78     (1,8,8)               0.0000000      SURF                                    
     79     (1,8,9)               0.0000000      SURF                                    
     80     (1,8,10)              0.0000000      SURF                                    
     81     (1,9,1)               0.0000000      SURF                                    
     82     (1,9,2)               0.0000000      SURF                                    
     83     (1,9,3)               0.0000000      SURF                                    
     84     (1,9,4)               0.0000000      SURF                                    
     85     (1,9,5)               0.0000000      SURF                                    
     86     (1,9,6)               0.0000000      SURF                                    
     87     (1,9,7)               0.0000000      SURF                                    
     88     (1,9,8)               0.0000000      SURF                                    
     89     (1,9,9)               0.0000000      SURF                                    
     90     (1,9,10)              0.0000000      SURF                                    
     91     (1,10,1)              0.0000000      SURF                                    
     92     (1,10,2)              0.0000000      SURF                                    
     93     (1,10,3)              0.0000000      SURF                                    
     94     (1,10,4)              0.0000000      SURF                                    
     95     (1,10,5)              0.0000000      SURF                                    
     96     (1,10,6)              0.0000000      SURF                                    
     97     (1,10,7)             -1.12355337E-07 SURF                                    
     98     (1,10,8)              0.0000000      SURF                                    
     99     (1,10,9)              0.0000000      SURF                                    
    100     (1,10,10)             0.0000000      SURF                                    
    101     (1,11,1)              0.0000000      SURF                                    
    102     (1,11,2)              0.0000000      SURF                                    
    103     (1,11,3)              0.0000000      SURF                                    
    104     (1,11,4)              0.0000000      SURF                                    
    105     (1,11,5)              0.0000000      SURF                                    
    106     (1,11,6)              0.0000000      SURF                                    
    107     (1,11,7)              0.0000000      SURF                                    
    108     (1,11,8)              0.0000000      SURF                                    
    109     (1,11,9)              0.0000000      SURF                                    
    110     (1,11,10)             0.0000000      SURF                                    
    111     (1,12,1)              0.0000000      SURF                                    
    112     (1,12,2)              0.0000000      SURF                                    
    113     (1,12,3)              0.0000000      SURF                                    
    114     (1,12,4)              0.0000000      SURF                                    
    115     (1,12,5)              0.0000000      SURF                                    
    116     (1,12,6)              0.0000000      SURF                                    
    117     (1,12,7)              0.0000000      SURF                                    
    118     (1,12,8)              0.0000000      SURF                                    
    119     (1,12,9)              0.0000000      SURF                                    
    120     (1,12,10)             0.0000000      SURF                                    
    121     (1,13,1)              0.0000000      SURF                                    
    122     (1,13,2)              0.0000000      SURF                                    
    123     (1,13,3)              0.0000000      SURF                                    
    124     (1,13,4)              0.0000000      SURF                                    
    125     (1,13,5)              0.0000000      SURF                                    
    126     (1,13,6)              0.0000000      SURF                                    
    127     (1,13,7)              0.0000000      SURF                                    
    128     (1,13,8)              0.0000000      SURF                                    
    129     (1,13,9)              0.0000000      SURF                                    
    130     (1,13,10)             0.0000000      SURF                                    
    131     (1,14,1)              0.0000000      SURF                                    
    132     (1,14,2)              0.0000000      SURF                                    
    133     (1,14,3)              0.0000000      SURF                                    
    134     (1,14,4)              0.0000000      SURF                                    
    135     (1,14,5)              0.0000000      SURF                                    
    136     (1,14,6)              0.0000000      SURF                                    
    137     (1,14,7)              0.0000000      SURF                                    
    138     (1,14,8)              0.0000000      SURF                                    
    139     (1,14,9)              0.0000000      SURF                                    
    140     (1,14,10)             0.0000000      SURF                                    
    141     (1,15,1)              0.0000000      SURF                                    
    142     (1,15,2)              0.0000000      SURF                                    
    143     (1,15,3)              0.0000000      SURF                                    
    144     (1,15,4)              0.0000000      SURF                                    
    145     (1,15,5)              0.0000000      SURF                                    
    146     (1,15,6)              0.0000000      SURF                                    
    147     (1,15,7)              0.0000000      SURF                                    
    148     (1,15,8)              0.0000000      SURF                                    
    149     (1,15,9)              0.0000000      SURF                                    
    150     (1,15,10)             0.0000000      SURF                                    
 ----------------------------------------------------------------------------------------




 API PACKAGE (MAR) FLOW RATES   PERIOD      2   STEP       14
 -----------------------------------------------
   NUMBER   CELLID                    RATE      
 -----------------------------------------------
     1      (1,6,5)               30.268074     
     2      (1,6,6)               30.268074     
     3      (1,6,7)               30.268074     
     4      (1,10,5)              30.671343     
     5      (1,10,6)              30.671343     
     6      (1,10,7)              30.671343     
 -----------------------------------------------



1
  HEAD IN LAYER   1 AT END OF TIME STEP  14 IN STRESS PERIOD    2
  ---------------------------------------------------------------------------

            1           2           3           4           5           6           7           8           9          10
 ........................................................................................................................
   1   3.0012E-06  1.2834E-05  5.2299E-05  1.6396E-04  3.4962E-04  4.2045E-04  3.4963E-04  1.6403E-04  5.2730E-05  1.5327E-05
   2   1.5409E-05  7.0141E-05  3.0300E-04  1.0062E-03  2.2512E-03  2.7012E-03  2.2513E-03  1.0065E-03  3.0512E-04  8.3074E-05
   3   7.6892E-05  3.7211E-04  1.7054E-03  6.0201E-03  1.4235E-02  1.6973E-02  1.4235E-02  6.0215E-03  1.7156E-03  4.3726E-04
   4   3.0989E-04  1.6023E-03  7.8496E-03  2.9816E-02  7.5963E-02  8.9160E-02  7.5963E-02  2.9821E-02  7.8887E-03  1.8673E-03
   5   9.0929E-04  5.0521E-03  2.6749E-02  0.1117      0.3208      0.3614      0.3208      0.1117      2.6858E-02  5.8366E-03
   6   1.5365E-03  9.1717E-03  5.3188E-02  0.2567      0.9978       1.000      0.9978      0.2567      5.3364E-02  1.0507E-02
   7   3.9225E-04  1.7223E-03  5.5230E-03 -3.1828E-03 -0.1720      -1.109     -0.1719     -3.1757E-03  5.5756E-03  2.0542E-03
   8  -5.9717E-04 -4.6179E-03 -3.5377E-02 -0.2388      -1.402      -7.560      -1.402     -0.2388     -3.5434E-02 -5.1516E-03
   9  -1.3501E-04 -7.7595E-04 -4.9612E-03 -3.2897E-02 -0.2155      -1.161     -0.2155     -3.2899E-02 -4.9777E-03 -8.9190E-04
  10   5.9331E-04  4.7309E-03  3.5652E-02  0.2190       1.000      0.9966       1.000      0.2190      3.5706E-02  5.2645E-03
  11   3.2429E-04  2.2843E-03  1.5080E-02  7.8124E-02  0.2687      0.2967      0.2687      7.8127E-02  1.5112E-02  2.5724E-03
  12   9.5521E-05  6.0977E-04  3.6348E-03  1.6745E-02  5.0279E-02  5.7711E-02  5.0279E-02  1.6746E-02  3.6451E-03  6.9376E-04
  13   2.0328E-05  1.1914E-04  6.5180E-04  2.7341E-03  7.4630E-03  8.7194E-03  7.4630E-03  2.7344E-03  6.5413E-04  1.3684E-04
  14   3.5010E-06  1.9005E-05  9.6460E-05  3.7399E-04  9.4818E-04  1.1180E-03  9.4818E-04  3.7405E-04  9.6884E-05  2.2022E-05
  15   5.8080E-07  2.9220E-06  1.3794E-05  4.9697E-05  1.1810E-04  1.3996E-04  1.1810E-04  4.9707E-05  1.3869E-05  3.4175E-06

 HEAD WILL BE SAVED ON UNIT 1100 AT END OF TIME STEP   14, STRESS PERIOD    2


  VOLUME BUDGET FOR ENTIRE MODEL AT END OF TIME STEP   14, STRESS PERIOD   2
  ---------------------------------------------------------------------------------------------------

     CUMULATIVE VOLUME      L**3       RATES FOR THIS TIME STEP      L**3/T          PACKAGE NAME    
     ------------------                 ------------------------                     ----------------

           IN:                                      IN:
           ---                                      ---
              STO-SS =          11.0394                STO-SS =       5.6354E-02     STORAGE                          
              STO-SY =       28464.9912                STO-SY =         158.7751     STORAGE                          
                 WEL =           0.0000                   WEL =           0.0000     WEL-1                            
                 DRN =           0.0000                   DRN =           0.0000     DRN-0                            
                 API =       29929.6729                   API =         182.8183     MAR                              
                 CHD =       2.0279E-08                   CHD =           0.0000     CHD_0                            

            TOTAL IN =       58405.7035              TOTAL IN =         341.6497

          OUT:                                     OUT:
          ----                                     ----
              STO-SS =          10.6438                STO-SS =       3.6573E-02     STORAGE                          
              STO-SY =       20595.0597                STO-SY =          71.6132     STORAGE                          
                 WEL =       37800.0000                   WEL =         270.0000     WEL-1                            
                 DRN =       4.1174E-05                   DRN =       1.1489E-07     DRN-0                            
                 API =           0.0000                   API =           0.0000     MAR                              
                 CHD =       2.0705E-08                   CHD =           0.0000     CHD_0                            

           TOTAL OUT =       58405.7035             TOTAL OUT =         341.6497

            IN - OUT =      -1.2341E-07              IN - OUT =      -5.3387E-09

 PERCENT DISCREPANCY =          -0.00     PERCENT DISCREPANCY =          -0.00




         TIME SUMMARY AT END OF TIME STEP   14 IN STRESS PERIOD    2
                    SECONDS     MINUTES      HOURS       DAYS        YEARS
                    -----------------------------------------------------------
   TIME STEP LENGTH 8.64000E+05  14400.      240.00      10.000     2.73785E-02
 STRESS PERIOD TIME 1.20960E+07 2.01600E+05  3360.0      140.00     0.38330    
         TOTAL TIME 1.21824E+07 2.03040E+05  3384.0      141.00     0.38604    


end timestep


start timestep kper="2" kstp="15" mode="normal"

 UBDSV1 SAVING           STO-SS ON UNIT   1099 AT TIME STEP     15, STRESS PERIOD      2
 UBDSV1 SAVING           STO-SY ON UNIT   1099 AT TIME STEP     15, STRESS PERIOD      2
 UBDSV1 SAVING     FLOW-JA-FACE ON UNIT   1099 AT TIME STEP     15, STRESS PERIOD      2
 UBDSV06 SAVING       DATA-SPDIS IN MODEL GWF              PACKAGE NPF             CONNECTED TO MODEL GWF              PACKAGE NPF              ON UNIT   1099 AT TIME STEP     15, STRESS PERIOD      2
 UBDSV06 SAVING              WEL IN MODEL GWF              PACKAGE GWF             CONNECTED TO MODEL GWF              PACKAGE WEL-1            ON UNIT   1099 AT TIME STEP     15, STRESS PERIOD      2
 UBDSV06 SAVING              DRN IN MODEL GWF              PACKAGE GWF             CONNECTED TO MODEL GWF              PACKAGE DRN-0            ON UNIT   1099 AT TIME STEP     15, STRESS PERIOD      2
 UBDSV06 SAVING              API IN MODEL GWF              PACKAGE GWF             CONNECTED TO MODEL GWF              PACKAGE MAR              ON UNIT   1099 AT TIME STEP     15, STRESS PERIOD      2
 UBDSV06 SAVING              CHD IN MODEL GWF              PACKAGE GWF             CONNECTED TO MODEL GWF              PACKAGE CHD_0            ON UNIT   1099 AT TIME STEP     15, STRESS PERIOD      2

    CALCULATED INTERCELL FLOW FOR PERIOD 2 STEP 15
(1,1,1): (1,1,2) 1.418398E-04 (1,2,1) 1.788846E-04
(1,1,2): (1,1,1) -1.418398E-04 (1,1,3) 5.464287E-04 (1,2,2) 7.867454E-04
(1,1,3): (1,1,2) -5.464287E-04 (1,1,4) 1.480691E-03 (1,2,3) 3.294160E-03
(1,1,4): (1,1,3) -1.480691E-03 (1,1,5) 2.369641E-03 (1,2,4) 1.062326E-02
(1,1,5): (1,1,4) -2.369641E-03 (1,1,6) 9.184920E-04 (1,2,5) 2.322734E-02
(1,1,6): (1,1,5) -9.184920E-04 (1,1,7) -9.183378E-04 (1,2,6) 2.781861E-02
(1,1,7): (1,1,6) 9.183378E-04 (1,1,8) -2.368705E-03 (1,2,7) 2.322785E-02
(1,1,8): (1,1,7) 2.368705E-03 (1,1,9) -1.474937E-03 (1,2,8) 1.062705E-02
(1,1,9): (1,1,8) 1.474937E-03 (1,1,10) -5.153468E-04 (1,2,9) 3.319420E-03
(1,1,10): (1,1,9) 5.153468E-04 (1,2,10) 9.360475E-04
(1,2,1): (1,1,1) -1.788846E-04 (1,2,2) 7.497003E-04 (1,3,1) 8.465532E-04
(1,2,2): (1,1,2) -7.867454E-04 (1,2,1) -7.497003E-04 (1,2,3) 3.053838E-03 (1,3,2) 3.949532E-03
(1,2,3): (1,1,3) -3.294160E-03 (1,2,2) -3.053838E-03 (1,2,4) 8.809659E-03 (1,3,3) 1.751577E-02
(1,2,4): (1,1,4) -1.062326E-02 (1,2,3) -8.809659E-03 (1,2,5) 1.497268E-02 (1,3,4) 5.998914E-02
(1,2,5): (1,1,5) -2.322734E-02 (1,2,4) -1.497268E-02 (1,2,6) 5.508735E-03 (1,3,5) 0.138609
(1,2,6): (1,1,6) -2.781861E-02 (1,2,5) -5.508735E-03 (1,2,7) -5.508073E-03 (1,3,6) 0.164895
(1,2,7): (1,1,7) -2.322785E-02 (1,2,6) 5.508073E-03 (1,2,8) -1.496847E-02 (1,3,7) 0.138611
(1,2,8): (1,1,8) -1.062705E-02 (1,2,7) 1.496847E-02 (1,2,9) -8.782431E-03 (1,3,8) 6.000564E-02
(1,2,9): (1,1,9) -3.319420E-03 (1,2,8) 8.782431E-03 (1,2,10) -2.898709E-03 (1,3,9) 1.763067E-02
(1,2,10): (1,1,10) -9.360475E-04 (1,2,9) 2.898709E-03 (1,3,10) 4.662733E-03
(1,3,1): (1,2,1) -8.465532E-04 (1,3,2) 3.852676E-03 (1,4,1) 3.047807E-03
(1,3,2): (1,2,2) -3.949532E-03 (1,3,1) -3.852676E-03 (1,3,3) 1.661995E-02 (1,4,2) 1.525087E-02
(1,3,3): (1,2,3) -1.751577E-02 (1,3,2) -1.661995E-02 (1,3,4) 5.127934E-02 (1,4,3) 7.262697E-02
(1,3,4): (1,2,4) -5.998914E-02 (1,3,3) -5.127934E-02 (1,3,5) 9.355716E-02 (1,4,4) 0.269469
(1,3,5): (1,2,5) -0.138609 (1,3,4) -9.355716E-02 (1,3,6) 3.175957E-02 (1,4,5) 0.677422
(1,3,6): (1,2,6) -0.164895 (1,3,5) -3.175957E-02 (1,3,7) -3.175677E-02 (1,4,6) 0.791690
(1,3,7): (1,2,7) -0.138611 (1,3,6) 3.175677E-02 (1,3,8) -9.353858E-02 (1,4,7) 0.677429
(1,3,8): (1,2,8) -6.000564E-02 (1,3,7) 9.353858E-02 (1,3,9) -5.115365E-02 (1,4,8) 0.269523
(1,3,9): (1,2,9) -1.763067E-02 (1,3,8) 5.115365E-02 (1,3,10) -1.586642E-02 (1,4,9) 7.302212E-02
(1,3,10): (1,2,10) -4.662733E-03 (1,3,9) 1.586642E-02 (1,4,10) 1.784535E-02
(1,4,1): (1,3,1) -3.047807E-03 (1,4,2) 1.605584E-02 (1,5,1) 7.406841E-03
(1,4,2): (1,3,2) -1.525087E-02 (1,4,1) -1.605584E-02 (1,4,3) 7.399683E-02 (1,5,2) 4.033293E-02
(1,4,3): (1,3,3) -7.262697E-02 (1,4,2) -7.399683E-02 (1,4,4) 0.248079 (1,5,3) 0.210760
(1,4,4): (1,3,4) -0.269469 (1,4,3) -0.248079 (1,4,5) 0.500804 (1,5,4) 0.880616
(1,4,5): (1,3,5) -0.677422 (1,4,4) -0.500804 (1,4,6) 0.145309 (1,5,5) 2.60074
(1,4,6): (1,3,6) -0.791690 (1,4,5) -0.145309 (1,4,7) -0.145299 (1,5,6) 2.88864
(1,4,7): (1,3,7) -0.677429 (1,4,6) 0.145299 (1,4,8) -0.500738 (1,5,7) 2.60076
(1,4,8): (1,3,8) -0.269523 (1,4,7) 0.500738 (1,4,9) -0.247612 (1,5,8) 0.880736
(1,4,9): (1,3,9) -7.302212E-02 (1,4,8) 0.247612 (1,4,10) -7.104210E-02 (1,5,9) 0.211671
(1,4,10): (1,3,10) -1.784535E-02 (1,4,9) 7.104210E-02 (1,5,10) 4.670971E-02
(1,5,1): (1,4,1) -7.406841E-03 (1,5,2) 4.898478E-02 (1,6,1) 7.090474E-03
(1,5,2): (1,4,2) -4.033293E-02 (1,5,1) -4.898478E-02 (1,5,3) 0.244481 (1,6,2) 4.411352E-02
(1,5,3): (1,4,3) -0.210760 (1,5,2) -0.244481 (1,5,4) 0.918181 (1,6,3) 0.272035
(1,5,4): (1,4,4) -0.880616 (1,5,3) -0.918181 (1,5,5) 2.21478 (1,6,4) 1.47640
(1,5,5): (1,4,5) -2.60074 (1,5,4) -2.21478 (1,5,6) 0.426861 (1,6,5) 7.31018
(1,5,6): (1,4,6) -2.88864 (1,5,5) -0.426861 (1,5,7) -0.426835 (1,6,6) 6.77703
(1,5,7): (1,4,7) -2.60076 (1,5,6) 0.426835 (1,5,8) -2.21461 (1,6,7) 7.31023
(1,5,8): (1,4,8) -0.880736 (1,5,7) 2.21461 (1,5,9) -0.916913 (1,6,8) 1.47650
(1,5,9): (1,4,9) -0.211671 (1,5,8) 0.916913 (1,5,10) -0.236043 (1,6,9) 0.272837
(1,5,10): (1,4,10) -4.670971E-02 (1,5,9) 0.236043 (1,6,10) 5.030935E-02
(1,6,1): (1,5,1) -7.090474E-03 (1,6,2) 8.602331E-02 (1,7,1) -1.390974E-02
(1,6,2): (1,5,2) -4.411352E-02 (1,6,1) -8.602331E-02 (1,6,3) 0.472855 (1,7,2) -8.597382E-02
(1,6,3): (1,5,3) -0.272035 (1,6,2) -0.472855 (1,6,4) 2.12998 (1,7,3) -0.528249
(1,6,4): (1,5,4) -1.47640 (1,6,3) -2.12998 (1,6,5) 8.08525 (1,7,4) -2.82931
(1,6,5): (1,5,5) -7.31018 (1,6,4) -8.08525 (1,6,6) -7.635888E-02 (1,7,5) -13.2706
(1,6,6): (1,5,6) -6.77703 (1,6,5) 7.635888E-02 (1,6,7) 7.644083E-02 (1,7,6) -23.9382
(1,6,7): (1,5,7) -7.31023 (1,6,6) -7.644083E-02 (1,6,8) -8.08502 (1,7,7) -13.2706
(1,6,8): (1,5,8) -1.47650 (1,6,7) 8.08502 (1,6,9) -2.12798 (1,7,8) -2.82951
(1,6,9): (1,5,9) -0.272837 (1,6,8) 2.12798 (1,6,10) -0.458980 (1,7,9) -0.529839
(1,6,10): (1,5,10) -5.030935E-02 (1,6,9) 0.458980 (1,7,10) -9.811400E-02
(1,7,1): (1,6,1) 1.390974E-02 (1,7,2) 1.395920E-02 (1,8,1) -1.216759E-02
(1,7,2): (1,6,2) 8.597382E-02 (1,7,1) -1.395920E-02 (1,7,3) 3.082138E-02 (1,8,2) -7.400288E-02
(1,7,3): (1,6,3) 0.528249 (1,7,2) -3.082138E-02 (1,7,4) -0.156129 (1,8,3) -0.456566
(1,7,4): (1,6,4) 2.82931 (1,7,3) 0.156129 (1,7,5) -1.95556 (1,8,4) -2.52570
(1,7,5): (1,6,5) 13.2706 (1,7,4) 1.95556 (1,7,6) -9.57911 (1,8,5) -12.5449
(1,7,6): (1,6,6) 23.9382 (1,7,5) 9.57911 (1,7,7) 9.57913 (1,8,6) -58.2622
(1,7,7): (1,6,7) 13.2706 (1,7,6) -9.57913 (1,7,8) 1.95565 (1,8,7) -12.5449
(1,7,8): (1,6,8) 2.82951 (1,7,7) -1.95565 (1,7,9) 0.156702 (1,8,8) -2.52588
(1,7,9): (1,6,9) 0.529839 (1,7,8) -0.156702 (1,7,10) -2.755723E-02 (1,8,9) -0.457974
(1,7,10): (1,6,10) 9.811400E-02 (1,7,9) 2.755723E-02 (1,8,10) -8.457857E-02
(1,8,1): (1,7,1) 1.216759E-02 (1,8,2) -4.786190E-02 (1,9,1) 5.914893E-03
(1,8,2): (1,7,2) 7.400288E-02 (1,8,1) 4.786190E-02 (1,8,3) -0.351351 (1,9,2) 4.646319E-02
(1,8,3): (1,7,3) 0.456566 (1,8,2) 0.351351 (1,8,4) -2.21904 (1,9,3) 0.348650
(1,8,4): (1,7,4) 2.52570 (1,8,3) 2.21904 (1,8,5) -11.9161 (1,9,4) 2.23704
(1,8,5): (1,7,5) 12.5449 (1,8,4) 11.9161 (1,8,6) -53.6829 (1,9,5) 12.1155
(1,8,6): (1,7,6) 58.2622 (1,8,5) 53.6829 (1,8,7) 53.6829 (1,9,6) 57.5525
(1,8,7): (1,7,7) 12.5449 (1,8,6) -53.6829 (1,8,8) 11.9160 (1,9,7) 12.1155
(1,8,8): (1,7,8) 2.52588 (1,8,7) -11.9160 (1,8,9) 2.21837 (1,9,8) 2.23709
(1,8,9): (1,7,9) 0.457974 (1,8,8) -2.21837 (1,8,10) 0.345427 (1,9,9) 0.349192
(1,8,10): (1,7,10) 8.457857E-02 (1,8,9) -0.345427 (1,9,10) 5.178032E-02
(1,9,1): (1,8,1) -5.914893E-03 (1,9,2) -7.313040E-03 (1,10,1) 9.330846E-03
(1,9,2): (1,8,2) -4.646319E-02 (1,9,1) 7.313040E-03 (1,9,3) -4.915596E-02 (1,10,2) 6.632515E-02
(1,9,3): (1,8,3) -0.348650 (1,9,2) 4.915596E-02 (1,9,4) -0.330988 (1,10,3) 0.462270
(1,9,4): (1,8,4) -2.23704 (1,9,3) 0.330988 (1,9,5) -2.05611 (1,10,4) 2.75695
(1,9,5): (1,8,5) -12.1155 (1,9,4) 2.05611 (1,9,6) -9.61166 (1,10,5) 13.6987
(1,9,6): (1,8,6) -57.5525 (1,9,5) 9.61166 (1,9,7) 9.61165 (1,10,6) 24.3979
(1,9,7): (1,8,7) -12.1155 (1,9,6) -9.61165 (1,9,8) 2.05609 (1,10,7) 13.6987
(1,9,8): (1,8,8) -2.23709 (1,9,7) -2.05609 (1,9,9) 0.330821 (1,10,8) 2.75705
(1,9,9): (1,8,9) -0.349192 (1,9,8) -0.330821 (1,9,10) 4.802728E-02 (1,10,9) 0.463224
(1,9,10): (1,8,10) -5.178032E-02 (1,9,9) -4.802728E-02 (1,10,10) 7.460170E-02
(1,10,1): (1,9,1) -9.330846E-03 (1,10,2) 4.967232E-02 (1,11,1) -3.279525E-03
(1,10,2): (1,9,2) -6.632515E-02 (1,10,1) -4.967232E-02 (1,10,3) 0.346358 (1,11,2) -2.785180E-02
(1,10,3): (1,9,3) -0.462270 (1,10,2) -0.346358 (1,10,4) 1.94710 (1,11,3) -0.220465
(1,10,4): (1,9,4) -2.75695 (1,10,3) -1.94710 (1,10,5) 8.46380 (1,11,4) -1.45214
(1,10,5): (1,9,5) -13.6987 (1,10,4) -8.46380 (1,10,6) -0.116069 (1,11,5) -7.83794
(1,10,6): (1,9,6) -24.3979 (1,10,5) 0.116069 (1,10,7) 0.116090 (1,11,6) -7.38374
(1,10,7): (1,9,7) -13.6987 (1,10,6) -0.116090 (1,10,8) -8.46374 (1,11,7) -7.83796
(1,10,8): (1,9,8) -2.75705 (1,10,7) 8.46374 (1,10,9) -1.94640 (1,11,8) -1.45217
(1,10,9): (1,9,9) -0.463224 (1,10,8) 1.94640 (1,10,10) -0.340144 (1,11,9) -0.220745
(1,10,10): (1,9,10) -7.460170E-02 (1,10,9) 0.340144 (1,11,10) -3.082964E-02
(1,11,1): (1,10,1) 3.279525E-03 (1,11,2) 2.509469E-02 (1,12,1) -3.100277E-03
(1,11,2): (1,10,2) 2.785180E-02 (1,11,1) -2.509469E-02 (1,11,3) 0.153504 (1,12,2) -2.118832E-02
(1,11,3): (1,10,3) 0.220465 (1,11,2) -0.153504 (1,11,4) 0.709616 (1,12,3) -0.135895
(1,11,4): (1,10,4) 1.45214 (1,11,3) -0.709616 (1,11,5) 2.04554 (1,12,4) -0.687790
(1,11,5): (1,10,5) 7.83794 (1,11,4) -2.04554 (1,11,6) 0.310504 (1,12,5) -2.35891
(1,11,6): (1,10,6) 7.38374 (1,11,5) -0.310504 (1,11,7) -0.310498 (1,12,6) -2.58579
(1,11,7): (1,10,7) 7.83796 (1,11,6) 0.310498 (1,11,8) -2.04549 (1,12,7) -2.35892
(1,11,8): (1,10,8) 1.45217 (1,11,7) 2.04549 (1,11,9) -0.709188 (1,12,8) -0.687824
(1,11,9): (1,10,9) 0.220745 (1,11,8) 0.709188 (1,11,10) -0.150003 (1,12,9) -0.136214
(1,11,10): (1,10,10) 3.082964E-02 (1,11,9) 0.150003 (1,12,10) -2.393585E-02
(1,12,1): (1,11,1) 3.100277E-03 (1,12,2) 7.005939E-03 (1,13,1) -1.089651E-03
(1,12,2): (1,11,2) 2.118832E-02 (1,12,1) -7.005939E-03 (1,12,3) 3.877709E-02 (1,13,2) -6.667292E-03
(1,12,3): (1,11,3) 0.135895 (1,12,2) -3.877709E-02 (1,12,4) 0.157604 (1,13,3) -3.816788E-02
(1,12,4): (1,11,4) 0.687790 (1,12,3) -0.157604 (1,12,5) 0.379324 (1,13,4) -0.169010
(1,12,5): (1,11,5) 2.35891 (1,12,4) -0.379324 (1,12,6) 8.832407E-02 (1,13,5) -0.491329
(1,12,6): (1,11,6) 2.58579 (1,12,5) -8.832407E-02 (1,12,7) -8.832200E-02 (1,13,6) -0.563995
(1,12,7): (1,11,7) 2.35892 (1,12,6) 8.832200E-02 (1,12,8) -0.379307 (1,13,7) -0.491331
(1,12,8): (1,11,8) 0.687824 (1,12,7) 0.379307 (1,12,9) -0.157463 (1,13,8) -0.169024
(1,12,9): (1,11,9) 0.136214 (1,12,8) 0.157463 (1,12,10) -3.770947E-02 (1,13,9) -3.828918E-02
(1,12,10): (1,11,10) 2.393585E-02 (1,12,9) 3.770947E-02 (1,13,10) -7.620721E-03
(1,13,1): (1,12,1) 1.089651E-03 (1,13,2) 1.428278E-03 (1,14,1) -2.587595E-04
(1,13,2): (1,12,2) 6.667292E-03 (1,13,1) -1.428278E-03 (1,13,3) 7.276308E-03 (1,14,2) -1.449943E-03
(1,13,3): (1,12,3) 3.816788E-02 (1,13,2) -7.276308E-03 (1,13,4) 2.677711E-02 (1,14,3) -7.602211E-03
(1,13,4): (1,12,4) 0.169010 (1,13,3) -2.677711E-02 (1,13,5) 5.736076E-02 (1,14,4) -3.057188E-02
(1,13,5): (1,12,5) 0.491329 (1,13,4) -5.736076E-02 (1,13,6) 1.599702E-02 (1,14,5) -8.047393E-02
(1,13,6): (1,12,6) 0.563995 (1,13,5) -1.599702E-02 (1,13,7) -1.599648E-02 (1,14,6) -9.417127E-02
(1,13,7): (1,12,7) 0.491331 (1,13,6) 1.599648E-02 (1,13,8) -5.735659E-02 (1,14,7) -8.047435E-02
(1,13,8): (1,12,8) 0.169024 (1,13,7) 5.735659E-02 (1,13,9) -2.674388E-02 (1,14,8) -3.057564E-02
(1,13,9): (1,12,9) 3.828918E-02 (1,13,8) 2.674388E-02 (1,13,10) -7.041189E-03 (1,14,9) -7.632881E-03
(1,13,10): (1,12,10) 7.620721E-03 (1,13,9) 7.041189E-03 (1,14,10) -1.673876E-03
(1,14,1): (1,13,1) 2.587595E-04 (1,14,2) 2.370954E-04 (1,15,1) -4.735226E-05
(1,14,2): (1,13,2) 1.449943E-03 (1,14,1) -2.370954E-04 (1,14,3) 1.124059E-03 (1,15,2) -2.464855E-04
(1,14,3): (1,13,3) 7.602211E-03 (1,14,2) -1.124059E-03 (1,14,4) 3.808307E-03 (1,15,3) -1.202613E-03
(1,14,4): (1,13,4) 3.057188E-02 (1,14,3) -3.808307E-03 (1,14,5) 7.470224E-03 (1,15,4) -4.484354E-03
(1,14,5): (1,13,5) 8.047393E-02 (1,14,4) -7.470224E-03 (1,14,6) 2.310347E-03 (1,15,5) -1.099857E-02
(1,14,6): (1,13,6) 9.417127E-02 (1,14,5) -2.310347E-03 (1,14,7) -2.310234E-03 (1,15,6) -1.299087E-02
(1,14,7): (1,13,7) 8.047435E-02 (1,14,6) 2.310234E-03 (1,14,8) -7.469384E-03 (1,15,7) -1.099865E-02
(1,14,8): (1,13,8) 3.057564E-02 (1,14,7) 7.469384E-03 (1,14,9) -3.802005E-03 (1,15,8) -4.485121E-03
(1,14,9): (1,13,9) 7.632881E-03 (1,14,8) 3.802005E-03 (1,14,10) -1.082219E-03 (1,15,9) -1.208528E-03
(1,14,10): (1,13,10) 1.673876E-03 (1,14,9) 1.082219E-03 (1,15,10) -2.870610E-04
(1,15,1): (1,14,1) 4.735226E-05 (1,15,2) 3.796218E-05
(1,15,2): (1,14,2) 2.464855E-04 (1,15,1) -3.796218E-05 (1,15,3) 1.679323E-04
(1,15,3): (1,14,3) 1.202613E-03 (1,15,2) -1.679323E-04 (1,15,4) 5.265878E-04
(1,15,4): (1,14,4) 4.484354E-03 (1,15,3) -5.265878E-04 (1,15,5) 9.562434E-04
(1,15,5): (1,14,5) 1.099857E-02 (1,15,4) -9.562434E-04 (1,15,6) 3.182568E-04
(1,15,6): (1,14,6) 1.299087E-02 (1,15,5) -3.182568E-04 (1,15,7) -3.182329E-04
(1,15,7): (1,14,7) 1.099865E-02 (1,15,6) 3.182329E-04 (1,15,8) -9.560794E-04
(1,15,8): (1,14,8) 4.485121E-03 (1,15,7) 9.560794E-04 (1,15,9) -5.254343E-04
(1,15,9): (1,14,9) 1.208528E-03 (1,15,8) 5.254343E-04 (1,15,10) -1.607531E-04
(1,15,10): (1,14,10) 2.870610E-04 (1,15,9) 1.607531E-04

 WEL PACKAGE (WEL-1) FLOW RATES   PERIOD      2   STEP       15
 ----------------------------------------------------------------------------------------
   NUMBER   CELLID                    RATE       NAME                                    
 ----------------------------------------------------------------------------------------
     1      (1,8,6)              -270.00000      WEL                                     
 ----------------------------------------------------------------------------------------




 DRN PACKAGE (DRN-0) FLOW RATES   PERIOD      2   STEP       15
 ----------------------------------------------------------------------------------------
   NUMBER   CELLID                    RATE       NAME                                    
 ----------------------------------------------------------------------------------------
     1      (1,1,1)               0.0000000      SURF                                    
     2      (1,1,2)               0.0000000      SURF                                    
     3      (1,1,3)               0.0000000      SURF                                    
     4      (1,1,4)               0.0000000      SURF                                    
     5      (1,1,5)               0.0000000      SURF                                    
     6      (1,1,6)               0.0000000      SURF                                    
     7      (1,1,7)               0.0000000      SURF                                    
     8      (1,1,8)               0.0000000      SURF                                    
     9      (1,1,9)               0.0000000      SURF                                    
     10     (1,1,10)              0.0000000      SURF                                    
     11     (1,2,1)               0.0000000      SURF                                    
     12     (1,2,2)               0.0000000      SURF                                    
     13     (1,2,3)               0.0000000      SURF                                    
     14     (1,2,4)               0.0000000      SURF                                    
     15     (1,2,5)               0.0000000      SURF                                    
     16     (1,2,6)               0.0000000      SURF                                    
     17     (1,2,7)               0.0000000      SURF                                    
     18     (1,2,8)               0.0000000      SURF                                    
     19     (1,2,9)               0.0000000      SURF                                    
     20     (1,2,10)              0.0000000      SURF                                    
     21     (1,3,1)               0.0000000      SURF                                    
     22     (1,3,2)               0.0000000      SURF                                    
     23     (1,3,3)               0.0000000      SURF                                    
     24     (1,3,4)               0.0000000      SURF                                    
     25     (1,3,5)               0.0000000      SURF                                    
     26     (1,3,6)               0.0000000      SURF                                    
     27     (1,3,7)               0.0000000      SURF                                    
     28     (1,3,8)               0.0000000      SURF                                    
     29     (1,3,9)               0.0000000      SURF                                    
     30     (1,3,10)              0.0000000      SURF                                    
     31     (1,4,1)               0.0000000      SURF                                    
     32     (1,4,2)               0.0000000      SURF                                    
     33     (1,4,3)               0.0000000      SURF                                    
     34     (1,4,4)               0.0000000      SURF                                    
     35     (1,4,5)               0.0000000      SURF                                    
     36     (1,4,6)               0.0000000      SURF                                    
     37     (1,4,7)               0.0000000      SURF                                    
     38     (1,4,8)               0.0000000      SURF                                    
     39     (1,4,9)               0.0000000      SURF                                    
     40     (1,4,10)              0.0000000      SURF                                    
     41     (1,5,1)               0.0000000      SURF                                    
     42     (1,5,2)               0.0000000      SURF                                    
     43     (1,5,3)               0.0000000      SURF                                    
     44     (1,5,4)               0.0000000      SURF                                    
     45     (1,5,5)               0.0000000      SURF                                    
     46     (1,5,6)               0.0000000      SURF                                    
     47     (1,5,7)               0.0000000      SURF                                    
     48     (1,5,8)               0.0000000      SURF                                    
     49     (1,5,9)               0.0000000      SURF                                    
     50     (1,5,10)              0.0000000      SURF                                    
     51     (1,6,1)               0.0000000      SURF                                    
     52     (1,6,2)               0.0000000      SURF                                    
     53     (1,6,3)               0.0000000      SURF                                    
     54     (1,6,4)               0.0000000      SURF                                    
     55     (1,6,5)               0.0000000      SURF                                    
     56     (1,6,6)               0.0000000      SURF                                    
     57     (1,6,7)              -5.61703928E-09 SURF                                    
     58     (1,6,8)               0.0000000      SURF                                    
     59     (1,6,9)               0.0000000      SURF                                    
     60     (1,6,10)              0.0000000      SURF                                    
     61     (1,7,1)               0.0000000      SURF                                    
     62     (1,7,2)               0.0000000      SURF                                    
     63     (1,7,3)               0.0000000      SURF                                    
     64     (1,7,4)               0.0000000      SURF                                    
     65     (1,7,5)               0.0000000      SURF                                    
     66     (1,7,6)               0.0000000      SURF                                    
     67     (1,7,7)               0.0000000      SURF                                    
     68     (1,7,8)               0.0000000      SURF                                    
     69     (1,7,9)               0.0000000      SURF                                    
     70     (1,7,10)              0.0000000      SURF                                    
     71     (1,8,1)               0.0000000      SURF                                    
     72     (1,8,2)               0.0000000      SURF                                    
     73     (1,8,3)               0.0000000      SURF                                    
     74     (1,8,4)               0.0000000      SURF                                    
     75     (1,8,5)               0.0000000      SURF                                    
     76     (1,8,6)               0.0000000      SURF                                    
     77     (1,8,7)               0.0000000      SURF                                    
     78     (1,8,8)               0.0000000      SURF                                    
     79     (1,8,9)               0.0000000      SURF                                    
     80     (1,8,10)              0.0000000      SURF                                    
     81     (1,9,1)               0.0000000      SURF                                    
     82     (1,9,2)               0.0000000      SURF                                    
     83     (1,9,3)               0.0000000      SURF                                    
     84     (1,9,4)               0.0000000      SURF                                    
     85     (1,9,5)               0.0000000      SURF                                    
     86     (1,9,6)               0.0000000      SURF                                    
     87     (1,9,7)               0.0000000      SURF                                    
     88     (1,9,8)               0.0000000      SURF                                    
     89     (1,9,9)               0.0000000      SURF                                    
     90     (1,9,10)              0.0000000      SURF                                    
     91     (1,10,1)              0.0000000      SURF                                    
     92     (1,10,2)              0.0000000      SURF                                    
     93     (1,10,3)              0.0000000      SURF                                    
     94     (1,10,4)              0.0000000      SURF                                    
     95     (1,10,5)              0.0000000      SURF                                    
     96     (1,10,6)              0.0000000      SURF                                    
     97     (1,10,7)             -1.49186235E-07 SURF                                    
     98     (1,10,8)              0.0000000      SURF                                    
     99     (1,10,9)              0.0000000      SURF                                    
    100     (1,10,10)             0.0000000      SURF                                    
    101     (1,11,1)              0.0000000      SURF                                    
    102     (1,11,2)              0.0000000      SURF                                    
    103     (1,11,3)              0.0000000      SURF                                    
    104     (1,11,4)              0.0000000      SURF                                    
    105     (1,11,5)              0.0000000      SURF                                    
    106     (1,11,6)              0.0000000      SURF                                    
    107     (1,11,7)              0.0000000      SURF                                    
    108     (1,11,8)              0.0000000      SURF                                    
    109     (1,11,9)              0.0000000      SURF                                    
    110     (1,11,10)             0.0000000      SURF                                    
    111     (1,12,1)              0.0000000      SURF                                    
    112     (1,12,2)              0.0000000      SURF                                    
    113     (1,12,3)              0.0000000      SURF                                    
    114     (1,12,4)              0.0000000      SURF                                    
    115     (1,12,5)              0.0000000      SURF                                    
    116     (1,12,6)              0.0000000      SURF                                    
    117     (1,12,7)              0.0000000      SURF                                    
    118     (1,12,8)              0.0000000      SURF                                    
    119     (1,12,9)              0.0000000      SURF                                    
    120     (1,12,10)             0.0000000      SURF                                    
    121     (1,13,1)              0.0000000      SURF                                    
    122     (1,13,2)              0.0000000      SURF                                    
    123     (1,13,3)              0.0000000      SURF                                    
    124     (1,13,4)              0.0000000      SURF                                    
    125     (1,13,5)              0.0000000      SURF                                    
    126     (1,13,6)              0.0000000      SURF                                    
    127     (1,13,7)              0.0000000      SURF                                    
    128     (1,13,8)              0.0000000      SURF                                    
    129     (1,13,9)              0.0000000      SURF                                    
    130     (1,13,10)             0.0000000      SURF                                    
    131     (1,14,1)              0.0000000      SURF                                    
    132     (1,14,2)              0.0000000      SURF                                    
    133     (1,14,3)              0.0000000      SURF                                    
    134     (1,14,4)              0.0000000      SURF                                    
    135     (1,14,5)              0.0000000      SURF                                    
    136     (1,14,6)              0.0000000      SURF                                    
    137     (1,14,7)              0.0000000      SURF                                    
    138     (1,14,8)              0.0000000      SURF                                    
    139     (1,14,9)              0.0000000      SURF                                    
    140     (1,14,10)             0.0000000      SURF                                    
    141     (1,15,1)              0.0000000      SURF                                    
    142     (1,15,2)              0.0000000      SURF                                    
    143     (1,15,3)              0.0000000      SURF                                    
    144     (1,15,4)              0.0000000      SURF                                    
    145     (1,15,5)              0.0000000      SURF                                    
    146     (1,15,6)              0.0000000      SURF                                    
    147     (1,15,7)              0.0000000      SURF                                    
    148     (1,15,8)              0.0000000      SURF                                    
    149     (1,15,9)              0.0000000      SURF                                    
    150     (1,15,10)             0.0000000      SURF                                    
 ----------------------------------------------------------------------------------------




 API PACKAGE (MAR) FLOW RATES   PERIOD      2   STEP       15
 -----------------------------------------------
   NUMBER   CELLID                    RATE      
 -----------------------------------------------
     1      (1,6,5)               29.172933     
     2      (1,6,6)               29.172933     
     3      (1,6,7)               29.172933     
     4      (1,10,5)              30.116467     
     5      (1,10,6)              30.116467     
     6      (1,10,7)              30.116467     
 -----------------------------------------------



1
  HEAD IN LAYER   1 AT END OF TIME STEP  15 IN STRESS PERIOD    2
  ---------------------------------------------------------------------------

            1           2           3           4           5           6           7           8           9          10
 ........................................................................................................................
   1   4.6040E-06  1.8788E-05  7.3430E-05  2.2150E-04  4.5845E-04  5.5029E-04  4.5846E-04  2.2161E-04  7.4115E-05  2.2580E-05
   2   2.2492E-05  9.7462E-05  4.0283E-04  1.2837E-03  2.7805E-03  3.3312E-03  2.7806E-03  1.2842E-03  4.0604E-04  1.1618E-04
   3   1.0715E-04  4.9240E-04  2.1540E-03  7.2782E-03  1.6618E-02  1.9788E-02  1.6619E-02  7.2804E-03  2.1687E-03  5.8243E-04
   4   4.1191E-04  2.0172E-03  9.4099E-03  3.4133E-02  8.3798E-02  9.8187E-02  8.3799E-02  3.4141E-02  9.4640E-03  2.3665E-03
   5   1.1525E-03  6.0480E-03  3.0422E-02  0.1211      0.3354      0.3766      0.3354      0.1212      3.0567E-02  7.0342E-03
   6   1.8614E-03  1.0455E-02  5.7470E-02  0.2650       1.000      0.9931       1.000      0.2650      5.7694E-02  1.2059E-02
   7   4.7071E-04  1.8664E-03  4.9470E-03 -1.0658E-02 -0.2064      -1.185     -0.2064     -1.0648E-02  5.0139E-03  2.2595E-03
   8  -7.4599E-04 -5.5325E-03 -4.0687E-02 -0.2635      -1.487      -7.794      -1.487     -0.2635     -4.0761E-02 -6.1964E-03
   9  -1.5449E-04 -8.8580E-04 -5.8018E-03 -3.8920E-02 -0.2453      -1.231     -0.2453     -3.8922E-02 -5.8211E-03 -1.0179E-03
  10   7.7852E-04  5.7429E-03  4.0240E-02  0.2306       1.000      0.9894       1.000      0.2306      4.0315E-02  6.4375E-03
  11   4.5060E-04  2.9593E-03  1.8282E-02  8.8620E-02  0.2875      0.3176      0.2875      8.8625E-02  1.8329E-02  3.3565E-03
  12   1.4058E-04  8.4112E-04  4.7170E-03  2.0445E-02  5.8158E-02  6.6932E-02  5.8158E-02  2.0447E-02  4.7329E-03  9.6374E-04
  13   3.1618E-05  1.7444E-04  9.0201E-04  3.5788E-03  9.3095E-03  1.0907E-02  9.3096E-03  3.5792E-03  9.0580E-04  2.0175E-04
  14   5.7424E-06  2.9452E-05  1.4186E-04  5.2267E-04  1.2696E-03  1.5006E-03  1.2696E-03  5.2276E-04  1.4258E-04  3.4361E-05
  15   1.0072E-06  4.8034E-06  2.1597E-05  7.4255E-05  1.6988E-04  2.0170E-04  1.6988E-04  7.4274E-05  2.1731E-05  5.6554E-06

 HEAD WILL BE SAVED ON UNIT 1100 AT END OF TIME STEP   15, STRESS PERIOD    2


  VOLUME BUDGET FOR ENTIRE MODEL AT END OF TIME STEP   15, STRESS PERIOD   2
  ---------------------------------------------------------------------------------------------------

     CUMULATIVE VOLUME      L**3       RATES FOR THIS TIME STEP      L**3/T          PACKAGE NAME    
     ------------------                 ------------------------                     ----------------

           IN:                                      IN:
           ---                                      ---
              STO-SS =          11.6008                STO-SS =       5.6135E-02     STORAGE                          
              STO-SY =       30035.7183                STO-SY =         157.0727     STORAGE                          
                 WEL =           0.0000                   WEL =           0.0000     WEL-1                            
                 DRN =           0.0000                   DRN =           0.0000     DRN-0                            
                 API =       31708.3549                   API =         177.8682     MAR                              
                 CHD =       2.0279E-08                   CHD =           0.0000     CHD_0                            

            TOTAL IN =       61755.6740              TOTAL IN =         334.9970

          OUT:                                     OUT:
          ----                                     ----
              STO-SS =          10.9741                STO-SS =       3.3034E-02     STORAGE                          
              STO-SY =       21244.6999                STO-SY =          64.9640     STORAGE                          
                 WEL =       40500.0000                   WEL =         270.0000     WEL-1                            
                 DRN =       4.2723E-05                   DRN =       1.5480E-07     DRN-0                            
                 API =           0.0000                   API =           0.0000     MAR                              
                 CHD =       2.0705E-08                   CHD =           0.0000     CHD_0                            

           TOTAL OUT =       61755.6740             TOTAL OUT =         334.9970

            IN - OUT =      -1.7251E-07              IN - OUT =      -4.9101E-09

 PERCENT DISCREPANCY =          -0.00     PERCENT DISCREPANCY =          -0.00




         TIME SUMMARY AT END OF TIME STEP   15 IN STRESS PERIOD    2
                    SECONDS     MINUTES      HOURS       DAYS        YEARS
                    -----------------------------------------------------------
   TIME STEP LENGTH 8.64000E+05  14400.      240.00      10.000     2.73785E-02
 STRESS PERIOD TIME 1.29600E+07 2.16000E+05  3600.0      150.00     0.41068    
         TOTAL TIME 1.30464E+07 2.17440E+05  3624.0      151.00     0.41342    


end timestep


start timestep kper="2" kstp="16" mode="normal"

 UBDSV1 SAVING           STO-SS ON UNIT   1099 AT TIME STEP     16, STRESS PERIOD      2
 UBDSV1 SAVING           STO-SY ON UNIT   1099 AT TIME STEP     16, STRESS PERIOD      2
 UBDSV1 SAVING     FLOW-JA-FACE ON UNIT   1099 AT TIME STEP     16, STRESS PERIOD      2
 UBDSV06 SAVING       DATA-SPDIS IN MODEL GWF              PACKAGE NPF             CONNECTED TO MODEL GWF              PACKAGE NPF              ON UNIT   1099 AT TIME STEP     16, STRESS PERIOD      2
 UBDSV06 SAVING              WEL IN MODEL GWF              PACKAGE GWF             CONNECTED TO MODEL GWF              PACKAGE WEL-1            ON UNIT   1099 AT TIME STEP     16, STRESS PERIOD      2
 UBDSV06 SAVING              DRN IN MODEL GWF              PACKAGE GWF             CONNECTED TO MODEL GWF              PACKAGE DRN-0            ON UNIT   1099 AT TIME STEP     16, STRESS PERIOD      2
 UBDSV06 SAVING              API IN MODEL GWF              PACKAGE GWF             CONNECTED TO MODEL GWF              PACKAGE MAR              ON UNIT   1099 AT TIME STEP     16, STRESS PERIOD      2
 UBDSV06 SAVING              CHD IN MODEL GWF              PACKAGE GWF             CONNECTED TO MODEL GWF              PACKAGE CHD_0            ON UNIT   1099 AT TIME STEP     16, STRESS PERIOD      2

    CALCULATED INTERCELL FLOW FOR PERIOD 2 STEP 16
(1,1,1): (1,1,2) 1.988791E-04 (1,2,1) 2.506581E-04
(1,1,2): (1,1,1) -1.988791E-04 (1,1,3) 7.373050E-04 (1,2,2) 1.052463E-03
(1,1,3): (1,1,2) -7.373050E-04 (1,1,4) 1.918694E-03 (1,2,3) 4.228869E-03
(1,1,4): (1,1,3) -1.918694E-03 (1,1,5) 2.964313E-03 (1,2,4) 1.312863E-02
(1,1,5): (1,1,4) -2.964313E-03 (1,1,6) 1.164389E-03 (1,2,5) 2.787225E-02
(1,1,6): (1,1,5) -1.164389E-03 (1,1,7) -1.164133E-03 (1,2,6) 3.332062E-02
(1,1,7): (1,1,6) 1.164133E-03 (1,1,8) -2.962829E-03 (1,2,7) 2.787305E-02
(1,1,8): (1,1,7) 2.962829E-03 (1,1,9) -1.909927E-03 (1,2,8) 1.313434E-02
(1,1,9): (1,1,8) 1.909927E-03 (1,1,10) -6.918467E-04 (1,2,9) 4.265454E-03
(1,1,10): (1,1,9) 6.918467E-04 (1,2,10) 1.259988E-03
(1,2,1): (1,1,1) -2.506581E-04 (1,2,2) 1.000684E-03 (1,3,1) 1.135692E-03
(1,2,2): (1,1,2) -1.052463E-03 (1,2,1) -1.000684E-03 (1,2,3) 3.913701E-03 (1,3,2) 5.047234E-03
(1,2,3): (1,1,3) -4.228869E-03 (1,2,2) -3.913701E-03 (1,2,4) 1.081825E-02 (1,3,3) 2.143634E-02
(1,2,4): (1,1,4) -1.312863E-02 (1,2,3) -1.081825E-02 (1,2,5) 1.770644E-02 (1,3,4) 7.053226E-02
(1,2,5): (1,1,5) -2.787225E-02 (1,2,4) -1.770644E-02 (1,2,6) 6.611300E-03 (1,3,5) 0.157926
(1,2,6): (1,1,6) -3.332062E-02 (1,2,5) -6.611300E-03 (1,2,7) -6.610248E-03 (1,3,6) 0.187546
(1,2,7): (1,1,7) -2.787305E-02 (1,2,6) 6.610248E-03 (1,2,8) -1.770004E-02 (1,3,7) 0.157929
(1,2,8): (1,1,8) -1.313434E-02 (1,2,7) 1.770004E-02 (1,2,9) -1.077860E-02 (1,3,8) 7.055618E-02
(1,2,9): (1,1,9) -4.265454E-03 (1,2,8) 1.077860E-02 (1,2,10) -3.697295E-03 (1,3,9) 2.159603E-02
(1,2,10): (1,1,10) -1.259988E-03 (1,2,9) 3.697295E-03 (1,3,10) 5.996404E-03
(1,3,1): (1,2,1) -1.135692E-03 (1,3,2) 4.912221E-03 (1,4,1) 3.894707E-03
(1,3,2): (1,2,2) -5.047234E-03 (1,3,1) -4.912221E-03 (1,3,3) 2.030262E-02 (1,4,2) 1.852711E-02
(1,3,3): (1,2,3) -2.143634E-02 (1,3,2) -2.030262E-02 (1,3,4) 5.990896E-02 (1,4,3) 8.435392E-02
(1,3,4): (1,2,4) -7.053226E-02 (1,3,3) -5.990896E-02 (1,3,5) 0.105054 (1,4,4) 0.300300
(1,3,5): (1,2,5) -0.157926 (1,3,4) -0.105054 (1,3,6) 3.618721E-02 (1,4,5) 0.730842
(1,3,6): (1,2,6) -0.187546 (1,3,5) -3.618721E-02 (1,3,7) -3.618292E-02 (1,4,6) 0.852175
(1,3,7): (1,2,7) -0.157929 (1,3,6) 3.618292E-02 (1,3,8) -0.105027 (1,4,7) 0.730852
(1,3,8): (1,2,8) -7.055618E-02 (1,3,7) 0.105027 (1,3,9) -5.973347E-02 (1,4,8) 0.300376
(1,3,9): (1,2,9) -2.159603E-02 (1,3,8) 5.973347E-02 (1,3,10) -1.929656E-02 (1,4,9) 8.487824E-02
(1,3,10): (1,2,10) -5.996404E-03 (1,3,9) 1.929656E-02 (1,4,10) 2.181666E-02
(1,4,1): (1,3,1) -3.894707E-03 (1,4,2) 1.954477E-02 (1,5,1) 8.965991E-03
(1,4,2): (1,3,2) -1.852711E-02 (1,4,1) -1.954477E-02 (1,4,3) 8.613060E-02 (1,5,2) 4.633839E-02
(1,4,3): (1,3,3) -8.435392E-02 (1,4,2) -8.613060E-02 (1,4,4) 0.275803 (1,5,3) 0.231358
(1,4,4): (1,3,4) -0.300300 (1,4,3) -0.275803 (1,4,5) 0.534769 (1,5,4) 0.928443
(1,4,5): (1,3,5) -0.730842 (1,4,4) -0.534769 (1,4,6) 0.156702 (1,5,5) 2.66186
(1,4,6): (1,3,6) -0.852175 (1,4,5) -0.156702 (1,4,7) -0.156687 (1,5,6) 2.94154
(1,4,7): (1,3,7) -0.730852 (1,4,6) 0.156687 (1,4,8) -0.534677 (1,5,7) 2.66188
(1,4,8): (1,3,8) -0.300376 (1,4,7) 0.534677 (1,4,9) -0.275177 (1,5,8) 0.928601
(1,4,9): (1,3,9) -8.487824E-02 (1,4,8) 0.275177 (1,4,10) -8.235655E-02 (1,5,9) 0.232506
(1,4,10): (1,3,10) -2.181666E-02 (1,4,9) 8.235655E-02 (1,5,10) 5.399908E-02
(1,5,1): (1,4,1) -8.965991E-03 (1,5,2) 5.692112E-02 (1,6,1) 7.850934E-03
(1,5,2): (1,4,2) -4.633839E-02 (1,5,1) -5.692112E-02 (1,5,3) 0.271224 (1,6,2) 4.643047E-02
(1,5,3): (1,4,3) -0.231358 (1,5,2) -0.271224 (1,5,4) 0.973191 (1,6,3) 0.275268
(1,5,4): (1,4,4) -0.928443 (1,5,3) -0.973191 (1,5,5) 2.26179 (1,6,4) 1.45607
(1,5,5): (1,4,5) -2.66186 (1,5,4) -2.26179 (1,5,6) 0.430121 (1,6,5) 7.16340
(1,5,6): (1,4,6) -2.94154 (1,5,5) -0.430121 (1,5,7) -0.430084 (1,6,6) 6.52363
(1,5,7): (1,4,7) -2.66188 (1,5,6) 0.430084 (1,5,8) -2.26156 (1,6,7) 7.16345
(1,5,8): (1,4,8) -0.928601 (1,5,7) 2.26156 (1,5,9) -0.971563 (1,6,8) 1.45620
(1,5,9): (1,4,9) -0.232506 (1,5,8) 0.971563 (1,5,10) -0.260913 (1,6,9) 0.276193
(1,5,10): (1,4,10) -5.399908E-02 (1,5,9) 0.260913 (1,6,10) 5.324243E-02
(1,6,1): (1,5,1) -7.850934E-03 (1,6,2) 9.551955E-02 (1,7,1) -1.665415E-02
(1,6,2): (1,5,2) -4.643047E-02 (1,6,1) -9.551955E-02 (1,6,3) 0.500569 (1,7,2) -9.803180E-02
(1,6,3): (1,5,3) -0.275268 (1,6,2) -0.500569 (1,6,4) 2.16186 (1,7,3) -0.578022
(1,6,4): (1,5,4) -1.45607 (1,6,3) -2.16186 (1,6,5) 8.00824 (1,7,4) -2.98958
(1,6,5): (1,5,5) -7.16340 (1,6,4) -8.00824 (1,6,6) -0.174957 (1,7,5) -13.6553
(1,6,6): (1,5,6) -6.52363 (1,6,5) 0.174957 (1,6,7) 0.175047 (1,7,6) -24.6220
(1,6,7): (1,5,7) -7.16345 (1,6,6) -0.175047 (1,6,8) -8.00792 (1,7,7) -13.6553
(1,6,8): (1,5,8) -1.45620 (1,6,7) 8.00792 (1,6,9) -2.15939 (1,7,8) -2.98984
(1,6,9): (1,5,9) -0.276193 (1,6,8) 2.15939 (1,6,10) -0.484322 (1,7,9) -0.580002
(1,6,10): (1,5,10) -5.324243E-02 (1,6,9) 0.484322 (1,7,10) -0.112472
(1,7,1): (1,6,1) 1.665415E-02 (1,7,2) 1.414394E-02 (1,8,1) -1.467725E-02
(1,7,2): (1,6,2) 9.803180E-02 (1,7,1) -1.414394E-02 (1,7,3) 2.094574E-02 (1,8,2) -8.501951E-02
(1,7,3): (1,6,3) 0.578022 (1,7,2) -2.094574E-02 (1,7,4) -0.231412 (1,8,3) -0.503327
(1,7,4): (1,6,4) 2.98958 (1,7,3) 0.231412 (1,7,5) -2.21900 (1,8,4) -2.68573
(1,7,5): (1,6,5) 13.6553 (1,7,4) 2.21900 (1,7,6) -9.91591 (1,8,5) -12.9566
(1,7,6): (1,6,6) 24.6220 (1,7,5) 9.91591 (1,7,7) 9.91593 (1,8,6) -59.0587
(1,7,7): (1,6,7) 13.6553 (1,7,6) -9.91593 (1,7,8) 2.21911 (1,8,7) -12.9566
(1,7,8): (1,6,8) 2.98984 (1,7,7) -2.21911 (1,7,9) 0.232115 (1,8,8) -2.68596
(1,7,9): (1,6,9) 0.580002 (1,7,8) -0.232115 (1,7,10) -1.723301E-02 (1,8,9) -0.505092
(1,7,10): (1,6,10) 0.112472 (1,7,9) 1.723301E-02 (1,8,10) -9.768922E-02
(1,8,1): (1,7,1) 1.467725E-02 (1,8,2) -5.618006E-02 (1,9,1) 7.409981E-03
(1,8,2): (1,7,2) 8.501951E-02 (1,8,1) 5.618006E-02 (1,8,3) -0.396923 (1,9,2) 5.515316E-02
(1,8,3): (1,7,3) 0.503327 (1,8,2) 0.396923 (1,8,4) -2.40787 (1,9,3) 0.393833
(1,8,4): (1,7,4) 2.68573 (1,8,3) 2.40787 (1,8,5) -12.4404 (1,9,4) 2.41210
(1,8,5): (1,7,5) 12.9566 (1,8,4) 12.4404 (1,8,6) -54.3267 (1,9,5) 12.5719
(1,8,6): (1,7,6) 59.0587 (1,8,5) 54.3267 (1,8,7) 54.3267 (1,9,6) 58.4296
(1,8,7): (1,7,7) 12.9566 (1,8,6) -54.3267 (1,8,8) 12.4403 (1,9,7) 12.5719
(1,8,8): (1,7,8) 2.68596 (1,8,7) -12.4403 (1,8,9) 2.40702 (1,9,8) 2.41217
(1,8,9): (1,7,9) 0.505092 (1,8,8) -2.40702 (1,8,10) 0.389705 (1,9,9) 0.394542
(1,8,10): (1,7,10) 9.768922E-02 (1,8,9) -0.389705 (1,9,10) 6.177765E-02
(1,9,1): (1,8,1) -7.409981E-03 (1,9,2) -8.436384E-03 (1,10,1) 1.167104E-02
(1,9,2): (1,8,2) -5.515316E-02 (1,9,1) 8.436384E-03 (1,9,3) -5.823322E-02 (1,10,2) 7.829586E-02
(1,9,3): (1,8,3) -0.393833 (1,9,2) 5.823322E-02 (1,9,4) -0.389685 (1,10,3) 0.516963
(1,9,4): (1,8,4) -2.41210 (1,9,3) 0.389685 (1,9,5) -2.29316 (1,10,4) 2.93123
(1,9,5): (1,8,5) -12.5719 (1,9,4) 2.29316 (1,9,6) -9.93771 (1,10,5) 14.0383
(1,9,6): (1,8,6) -58.4296 (1,9,5) 9.93771 (1,9,7) 9.93771 (1,10,6) 25.0411
(1,9,7): (1,8,7) -12.5719 (1,9,6) -9.93771 (1,9,8) 2.29313 (1,10,7) 14.0383
(1,9,8): (1,8,8) -2.41217 (1,9,7) -2.29313 (1,9,9) 0.389495 (1,10,8) 2.93138
(1,9,9): (1,8,9) -0.394542 (1,9,8) -0.389495 (1,9,10) 5.695683E-02 (1,10,9) 0.518212
(1,9,10): (1,8,10) -6.177765E-02 (1,9,9) -5.695683E-02 (1,10,10) 8.858191E-02
(1,10,1): (1,9,1) -1.167104E-02 (1,10,2) 5.817576E-02 (1,11,1) -3.861302E-03
(1,10,2): (1,9,2) -7.829586E-02 (1,10,1) -5.817576E-02 (1,10,3) 0.379873 (1,11,2) -3.082489E-02
(1,10,3): (1,9,3) -0.516963 (1,10,2) -0.379873 (1,10,4) 2.00487 (1,11,3) -0.230806
(1,10,4): (1,9,4) -2.93123 (1,10,3) -2.00487 (1,10,5) 8.35553 (1,11,4) -1.45001
(1,10,5): (1,9,5) -14.0383 (1,10,4) -8.35553 (1,10,6) -0.198145 (1,11,5) -7.65082
(1,10,6): (1,9,6) -25.0411 (1,10,5) 0.198145 (1,10,7) 0.198172 (1,11,6) -7.09122
(1,10,7): (1,9,7) -14.0383 (1,10,6) -0.198172 (1,10,8) -8.35544 (1,11,7) -7.65083
(1,10,8): (1,9,8) -2.93138 (1,10,7) 8.35544 (1,10,9) -2.00394 (1,11,8) -1.45004
(1,10,9): (1,9,9) -0.518212 (1,10,8) 2.00394 (1,10,10) -0.372084 (1,11,9) -0.231154
(1,10,10): (1,9,10) -8.858191E-02 (1,10,9) 0.372084 (1,11,10) -3.431044E-02
(1,11,1): (1,10,1) 3.861302E-03 (1,11,2) 3.120480E-02 (1,12,1) -4.061502E-03
(1,11,2): (1,10,2) 3.082489E-02 (1,11,1) -3.120480E-02 (1,11,3) 0.179596 (1,12,2) -2.603246E-02
(1,11,3): (1,10,3) 0.230806 (1,11,2) -0.179596 (1,11,4) 0.779236 (1,12,3) -0.157314
(1,11,4): (1,10,4) 1.45001 (1,11,3) -0.779236 (1,11,5) 2.11924 (1,12,4) -0.751598
(1,11,5): (1,10,5) 7.65082 (1,11,4) -2.11924 (1,11,6) 0.328711 (1,12,5) -2.45637
(1,11,6): (1,10,6) 7.09122 (1,11,5) -0.328711 (1,11,7) -0.328701 (1,12,6) -2.68832
(1,11,7): (1,10,7) 7.65083 (1,11,6) 0.328701 (1,11,8) -2.11917 (1,12,7) -2.45638
(1,11,8): (1,10,8) 1.45004 (1,11,7) 2.11917 (1,11,9) -0.778635 (1,12,8) -0.751647
(1,11,9): (1,10,9) 0.231154 (1,11,8) 0.778635 (1,11,10) -0.174965 (1,12,9) -0.157753
(1,11,10): (1,10,10) 3.431044E-02 (1,11,9) 0.174965 (1,12,10) -2.960532E-02
(1,12,1): (1,11,1) 4.061502E-03 (1,12,2) 9.232713E-03 (1,13,1) -1.521616E-03
(1,12,2): (1,11,2) 2.603246E-02 (1,12,1) -9.232713E-03 (1,12,3) 4.828602E-02 (1,13,2) -8.764334E-03
(1,12,3): (1,11,3) 0.157314 (1,12,2) -4.828602E-02 (1,12,4) 0.184792 (1,13,3) -4.743252E-02
(1,12,4): (1,11,4) 0.751598 (1,12,3) -0.184792 (1,12,5) 0.419830 (1,13,4) -0.198786
(1,12,5): (1,11,5) 2.45637 (1,12,4) -0.419830 (1,12,6) 0.101711 (1,13,5) -0.551135
(1,12,6): (1,11,6) 2.68832 (1,12,5) -0.101711 (1,12,7) -0.101708 (1,13,6) -0.633548
(1,12,7): (1,11,7) 2.45638 (1,12,6) 0.101708 (1,12,8) -0.419804 (1,13,7) -0.551138
(1,12,8): (1,11,8) 0.751647 (1,12,7) 0.419804 (1,12,9) -0.184584 (1,13,8) -0.198808
(1,12,9): (1,11,9) 0.157753 (1,12,8) 0.184584 (1,12,10) -4.679580E-02 (1,13,9) -4.760989E-02
(1,12,10): (1,11,10) 2.960532E-02 (1,12,9) 4.679580E-02 (1,13,10) -1.008557E-02
(1,13,1): (1,12,1) 1.521616E-03 (1,13,2) 1.989961E-03 (1,14,1) -3.823034E-04
(1,13,2): (1,12,2) 8.764334E-03 (1,13,1) -1.989961E-03 (1,13,3) 9.617506E-03 (1,14,2) -2.023820E-03
(1,13,3): (1,12,3) 4.743252E-02 (1,13,2) -9.617506E-03 (1,13,4) 3.345880E-02 (1,14,3) -1.006845E-02
(1,13,4): (1,12,4) 0.198786 (1,13,3) -3.345880E-02 (1,13,5) 6.793679E-02 (1,14,4) -3.847109E-02
(1,13,5): (1,12,5) 0.551135 (1,13,4) -6.793679E-02 (1,13,6) 1.972698E-02 (1,14,5) -9.697752E-02
(1,13,6): (1,12,6) 0.633548 (1,13,5) -1.972698E-02 (1,13,7) -1.972606E-02 (1,14,6) -0.113687
(1,13,7): (1,12,7) 0.551138 (1,13,6) 1.972606E-02 (1,13,8) -6.793000E-02 (1,14,7) -9.697824E-02
(1,13,8): (1,12,8) 0.198808 (1,13,7) 6.793000E-02 (1,13,9) -3.340736E-02 (1,14,8) -3.847717E-02
(1,13,9): (1,12,9) 4.760989E-02 (1,13,8) 3.340736E-02 (1,13,10) -9.271784E-03 (1,14,9) -1.011573E-02
(1,13,10): (1,12,10) 1.008557E-02 (1,13,9) 9.271784E-03 (1,14,10) -2.352096E-03
(1,14,1): (1,13,1) 3.823034E-04 (1,14,2) 3.484448E-04 (1,15,1) -7.357000E-05
(1,14,2): (1,13,2) 2.023820E-03 (1,14,1) -3.484448E-04 (1,14,3) 1.572913E-03 (1,15,2) -3.630233E-04
(1,14,3): (1,13,3) 1.006845E-02 (1,14,2) -1.572913E-03 (1,14,4) 5.057584E-03 (1,15,3) -1.686609E-03
(1,14,4): (1,13,4) 3.847109E-02 (1,14,3) -5.057584E-03 (1,14,5) 9.447307E-03 (1,15,4) -5.999429E-03
(1,14,5): (1,13,5) 9.697752E-02 (1,14,4) -9.447307E-03 (1,14,6) 3.033596E-03 (1,15,5) -1.415322E-02
(1,14,6): (1,13,6) 0.113687 (1,14,5) -3.033596E-03 (1,14,7) -3.033393E-03 (1,15,6) -1.674167E-02
(1,14,7): (1,13,7) 9.697824E-02 (1,14,6) 3.033393E-03 (1,14,8) -9.445876E-03 (1,15,7) -1.415337E-02
(1,14,8): (1,13,8) 3.847717E-02 (1,14,7) 9.445876E-03 (1,14,9) -5.047353E-03 (1,15,8) -6.000725E-03
(1,14,9): (1,13,9) 1.011573E-02 (1,14,8) 5.047353E-03 (1,14,10) -1.508218E-03 (1,15,9) -1.696167E-03
(1,14,10): (1,13,10) 2.352096E-03 (1,14,9) 1.508218E-03 (1,15,10) -4.255704E-04
(1,15,1): (1,14,1) 7.357000E-05 (1,15,2) 5.899160E-05
(1,15,2): (1,14,2) 3.630233E-04 (1,15,1) -5.899160E-05 (1,15,3) 2.493283E-04
(1,15,3): (1,14,3) 1.686609E-03 (1,15,2) -2.493283E-04 (1,15,4) 7.448047E-04
(1,15,4): (1,14,4) 5.999429E-03 (1,15,3) -7.448047E-04 (1,15,5) 1.293903E-03
(1,15,5): (1,14,5) 1.415322E-02 (1,15,4) -1.293903E-03 (1,15,6) 4.454951E-04
(1,15,6): (1,14,6) 1.674167E-02 (1,15,5) -4.454951E-04 (1,15,7) -4.454509E-04
(1,15,7): (1,14,7) 1.415337E-02 (1,15,6) 4.454509E-04 (1,15,8) -1.293611E-03
(1,15,8): (1,14,8) 6.000725E-03 (1,15,7) 1.293611E-03 (1,15,9) -7.428356E-04
(1,15,9): (1,14,9) 1.696167E-03 (1,15,8) 7.428356E-04 (1,15,10) -2.376242E-04
(1,15,10): (1,14,10) 4.255704E-04 (1,15,9) 2.376242E-04

 WEL PACKAGE (WEL-1) FLOW RATES   PERIOD      2   STEP       16
 ----------------------------------------------------------------------------------------
   NUMBER   CELLID                    RATE       NAME                                    
 ----------------------------------------------------------------------------------------
     1      (1,8,6)              -270.00000      WEL                                     
 ----------------------------------------------------------------------------------------




 DRN PACKAGE (DRN-0) FLOW RATES   PERIOD      2   STEP       16
 ----------------------------------------------------------------------------------------
   NUMBER   CELLID                    RATE       NAME                                    
 ----------------------------------------------------------------------------------------
     1      (1,1,1)               0.0000000      SURF                                    
     2      (1,1,2)               0.0000000      SURF                                    
     3      (1,1,3)               0.0000000      SURF                                    
     4      (1,1,4)               0.0000000      SURF                                    
     5      (1,1,5)               0.0000000      SURF                                    
     6      (1,1,6)               0.0000000      SURF                                    
     7      (1,1,7)               0.0000000      SURF                                    
     8      (1,1,8)               0.0000000      SURF                                    
     9      (1,1,9)               0.0000000      SURF                                    
     10     (1,1,10)              0.0000000      SURF                                    
     11     (1,2,1)               0.0000000      SURF                                    
     12     (1,2,2)               0.0000000      SURF                                    
     13     (1,2,3)               0.0000000      SURF                                    
     14     (1,2,4)               0.0000000      SURF                                    
     15     (1,2,5)               0.0000000      SURF                                    
     16     (1,2,6)               0.0000000      SURF                                    
     17     (1,2,7)               0.0000000      SURF                                    
     18     (1,2,8)               0.0000000      SURF                                    
     19     (1,2,9)               0.0000000      SURF                                    
     20     (1,2,10)              0.0000000      SURF                                    
     21     (1,3,1)               0.0000000      SURF                                    
     22     (1,3,2)               0.0000000      SURF                                    
     23     (1,3,3)               0.0000000      SURF                                    
     24     (1,3,4)               0.0000000      SURF                                    
     25     (1,3,5)               0.0000000      SURF                                    
     26     (1,3,6)               0.0000000      SURF                                    
     27     (1,3,7)               0.0000000      SURF                                    
     28     (1,3,8)               0.0000000      SURF                                    
     29     (1,3,9)               0.0000000      SURF                                    
     30     (1,3,10)              0.0000000      SURF                                    
     31     (1,4,1)               0.0000000      SURF                                    
     32     (1,4,2)               0.0000000      SURF                                    
     33     (1,4,3)               0.0000000      SURF                                    
     34     (1,4,4)               0.0000000      SURF                                    
     35     (1,4,5)               0.0000000      SURF                                    
     36     (1,4,6)               0.0000000      SURF                                    
     37     (1,4,7)               0.0000000      SURF                                    
     38     (1,4,8)               0.0000000      SURF                                    
     39     (1,4,9)               0.0000000      SURF                                    
     40     (1,4,10)              0.0000000      SURF                                    
     41     (1,5,1)               0.0000000      SURF                                    
     42     (1,5,2)               0.0000000      SURF                                    
     43     (1,5,3)               0.0000000      SURF                                    
     44     (1,5,4)               0.0000000      SURF                                    
     45     (1,5,5)               0.0000000      SURF                                    
     46     (1,5,6)               0.0000000      SURF                                    
     47     (1,5,7)               0.0000000      SURF                                    
     48     (1,5,8)               0.0000000      SURF                                    
     49     (1,5,9)               0.0000000      SURF                                    
     50     (1,5,10)              0.0000000      SURF                                    
     51     (1,6,1)               0.0000000      SURF                                    
     52     (1,6,2)               0.0000000      SURF                                    
     53     (1,6,3)               0.0000000      SURF                                    
     54     (1,6,4)               0.0000000      SURF                                    
     55     (1,6,5)               0.0000000      SURF                                    
     56     (1,6,6)               0.0000000      SURF                                    
     57     (1,6,7)              -6.02449290E-09 SURF                                    
     58     (1,6,8)               0.0000000      SURF                                    
     59     (1,6,9)               0.0000000      SURF                                    
     60     (1,6,10)              0.0000000      SURF                                    
     61     (1,7,1)               0.0000000      SURF                                    
     62     (1,7,2)               0.0000000      SURF                                    
     63     (1,7,3)               0.0000000      SURF                                    
     64     (1,7,4)               0.0000000      SURF                                    
     65     (1,7,5)               0.0000000      SURF                                    
     66     (1,7,6)               0.0000000      SURF                                    
     67     (1,7,7)               0.0000000      SURF                                    
     68     (1,7,8)               0.0000000      SURF                                    
     69     (1,7,9)               0.0000000      SURF                                    
     70     (1,7,10)              0.0000000      SURF                                    
     71     (1,8,1)               0.0000000      SURF                                    
     72     (1,8,2)               0.0000000      SURF                                    
     73     (1,8,3)               0.0000000      SURF                                    
     74     (1,8,4)               0.0000000      SURF                                    
     75     (1,8,5)               0.0000000      SURF                                    
     76     (1,8,6)               0.0000000      SURF                                    
     77     (1,8,7)               0.0000000      SURF                                    
     78     (1,8,8)               0.0000000      SURF                                    
     79     (1,8,9)               0.0000000      SURF                                    
     80     (1,8,10)              0.0000000      SURF                                    
     81     (1,9,1)               0.0000000      SURF                                    
     82     (1,9,2)               0.0000000      SURF                                    
     83     (1,9,3)               0.0000000      SURF                                    
     84     (1,9,4)               0.0000000      SURF                                    
     85     (1,9,5)               0.0000000      SURF                                    
     86     (1,9,6)               0.0000000      SURF                                    
     87     (1,9,7)               0.0000000      SURF                                    
     88     (1,9,8)               0.0000000      SURF                                    
     89     (1,9,9)               0.0000000      SURF                                    
     90     (1,9,10)              0.0000000      SURF                                    
     91     (1,10,1)              0.0000000      SURF                                    
     92     (1,10,2)              0.0000000      SURF                                    
     93     (1,10,3)              0.0000000      SURF                                    
     94     (1,10,4)              0.0000000      SURF                                    
     95     (1,10,5)              0.0000000      SURF                                    
     96     (1,10,6)              0.0000000      SURF                                    
     97     (1,10,7)             -1.61744538E-07 SURF                                    
     98     (1,10,8)              0.0000000      SURF                                    
     99     (1,10,9)              0.0000000      SURF                                    
    100     (1,10,10)             0.0000000      SURF                                    
    101     (1,11,1)              0.0000000      SURF                                    
    102     (1,11,2)              0.0000000      SURF                                    
    103     (1,11,3)              0.0000000      SURF                                    
    104     (1,11,4)              0.0000000      SURF                                    
    105     (1,11,5)              0.0000000      SURF                                    
    106     (1,11,6)              0.0000000      SURF                                    
    107     (1,11,7)              0.0000000      SURF                                    
    108     (1,11,8)              0.0000000      SURF                                    
    109     (1,11,9)              0.0000000      SURF                                    
    110     (1,11,10)             0.0000000      SURF                                    
    111     (1,12,1)              0.0000000      SURF                                    
    112     (1,12,2)              0.0000000      SURF                                    
    113     (1,12,3)              0.0000000      SURF                                    
    114     (1,12,4)              0.0000000      SURF                                    
    115     (1,12,5)              0.0000000      SURF                                    
    116     (1,12,6)              0.0000000      SURF                                    
    117     (1,12,7)              0.0000000      SURF                                    
    118     (1,12,8)              0.0000000      SURF                                    
    119     (1,12,9)              0.0000000      SURF                                    
    120     (1,12,10)             0.0000000      SURF                                    
    121     (1,13,1)              0.0000000      SURF                                    
    122     (1,13,2)              0.0000000      SURF                                    
    123     (1,13,3)              0.0000000      SURF                                    
    124     (1,13,4)              0.0000000      SURF                                    
    125     (1,13,5)              0.0000000      SURF                                    
    126     (1,13,6)              0.0000000      SURF                                    
    127     (1,13,7)              0.0000000      SURF                                    
    128     (1,13,8)              0.0000000      SURF                                    
    129     (1,13,9)              0.0000000      SURF                                    
    130     (1,13,10)             0.0000000      SURF                                    
    131     (1,14,1)              0.0000000      SURF                                    
    132     (1,14,2)              0.0000000      SURF                                    
    133     (1,14,3)              0.0000000      SURF                                    
    134     (1,14,4)              0.0000000      SURF                                    
    135     (1,14,5)              0.0000000      SURF                                    
    136     (1,14,6)              0.0000000      SURF                                    
    137     (1,14,7)              0.0000000      SURF                                    
    138     (1,14,8)              0.0000000      SURF                                    
    139     (1,14,9)              0.0000000      SURF                                    
    140     (1,14,10)             0.0000000      SURF                                    
    141     (1,15,1)              0.0000000      SURF                                    
    142     (1,15,2)              0.0000000      SURF                                    
    143     (1,15,3)              0.0000000      SURF                                    
    144     (1,15,4)              0.0000000      SURF                                    
    145     (1,15,5)              0.0000000      SURF                                    
    146     (1,15,6)              0.0000000      SURF                                    
    147     (1,15,7)              0.0000000      SURF                                    
    148     (1,15,8)              0.0000000      SURF                                    
    149     (1,15,9)              0.0000000      SURF                                    
    150     (1,15,10)             0.0000000      SURF                                    
 ----------------------------------------------------------------------------------------




 API PACKAGE (MAR) FLOW RATES   PERIOD      2   STEP       16
 -----------------------------------------------
   NUMBER   CELLID                    RATE      
 -----------------------------------------------
     1      (1,6,5)               29.001765     
     2      (1,6,6)               29.001765     
     3      (1,6,7)               29.001765     
     4      (1,10,5)              30.242759     
     5      (1,10,6)              30.242759     
     6      (1,10,7)              30.242759     
 -----------------------------------------------



1
  HEAD IN LAYER   1 AT END OF TIME STEP  16 IN STRESS PERIOD    2
  ---------------------------------------------------------------------------

            1           2           3           4           5           6           7           8           9          10
 ........................................................................................................................
   1   6.8505E-06  2.6738E-05  1.0047E-04  2.9233E-04  5.8875E-04  7.0518E-04  5.8877E-04  2.9251E-04  1.0152E-04  3.2335E-05
   2   3.1916E-05  1.3198E-04  5.2333E-04  1.6050E-03  3.3750E-03  4.0359E-03  3.3751E-03  1.6057E-03  5.2804E-04  1.5833E-04
   3   1.4548E-04  6.3667E-04  2.6664E-03  8.6521E-03  1.9137E-02  2.2748E-02  1.9138E-02  8.6552E-03  2.6871E-03  7.5793E-04
   4   5.3493E-04  2.4889E-03  1.1092E-02  3.8567E-02  9.1558E-02  0.1071      9.1560E-02  3.8577E-02  1.1165E-02  2.9389E-03
   5   1.4314E-03  7.1195E-03  3.4149E-02  0.1302      0.3488      0.3902      0.3488      0.1302      3.4336E-02  8.3344E-03
   6   2.2163E-03  1.1757E-02  6.1508E-02  0.2720       1.000      0.9841       1.000      0.2720      6.1786E-02  1.3651E-02
   7   5.5128E-04  1.9654E-03  4.0591E-03 -1.9073E-02 -0.2414      -1.258     -0.2414     -1.9060E-02  4.1421E-03  2.4195E-03
   8  -9.1637E-04 -6.5349E-03 -4.6253E-02 -0.2882      -1.569      -8.013      -1.569     -0.2882     -4.6346E-02 -7.3470E-03
   9  -1.7536E-04 -1.0190E-03 -6.8429E-03 -4.5838E-02 -0.2762      -1.298     -0.2762     -4.5841E-02 -6.8649E-03 -1.1686E-03
  10   9.9163E-04  6.8052E-03  4.4624E-02  0.2404       1.000      0.9820       1.000      0.2404      4.4726E-02  7.6828E-03
  11   6.0554E-04  3.7249E-03  2.1646E-02  9.8807E-02  0.3045      0.3363      0.3045      9.8815E-02  2.1713E-02  4.2544E-03
  12   1.9942E-04  1.1226E-03  5.9483E-03  2.4383E-02  6.6090E-02  7.6184E-02  6.6090E-02  2.4385E-02  5.9719E-03  1.2952E-03
  13   4.7257E-05  2.4625E-04  1.2079E-03  4.5522E-03  1.1338E-02  1.3308E-02  1.1338E-02  4.5530E-03  1.2138E-03  2.8673E-04
  14   9.0266E-06  4.3871E-05  2.0116E-04  7.0688E-04  1.6515E-03  1.9548E-03  1.6515E-03  7.0704E-04  2.0235E-04  5.1527E-05
  15   1.6696E-06  7.5688E-06  3.2502E-05  1.0698E-04  2.3637E-04  2.8092E-04  2.3637E-04  1.0701E-04  3.2732E-05  8.9697E-06

 HEAD WILL BE SAVED ON UNIT 1100 AT END OF TIME STEP   16, STRESS PERIOD    2


  VOLUME BUDGET FOR ENTIRE MODEL AT END OF TIME STEP   16, STRESS PERIOD   2
  ---------------------------------------------------------------------------------------------------

     CUMULATIVE VOLUME      L**3       RATES FOR THIS TIME STEP      L**3/T          PACKAGE NAME    
     ------------------                 ------------------------                     ----------------

           IN:                                      IN:
           ---                                      ---
              STO-SS =          12.1511                STO-SS =       5.5026E-02     STORAGE                          
              STO-SY =       31573.8075                STO-SY =         153.8089     STORAGE                          
                 WEL =           0.0000                   WEL =           0.0000     WEL-1                            
                 DRN =           0.0000                   DRN =           0.0000     DRN-0                            
                 API =       33485.6906                   API =         177.7336     MAR                              
                 CHD =       2.0279E-08                   CHD =           0.0000     CHD_0                            

            TOTAL IN =       65071.6492              TOTAL IN =         331.5975

          OUT:                                     OUT:
          ----                                     ----
              STO-SS =          11.2869                STO-SS =       3.1275E-02     STORAGE                          
              STO-SY =       21860.3623                STO-SY =          61.5662     STORAGE                          
                 WEL =       43200.0000                   WEL =         270.0000     WEL-1                            
                 DRN =       4.4400E-05                   DRN =       1.6777E-07     DRN-0                            
                 API =           0.0000                   API =           0.0000     MAR                              
                 CHD =       2.0705E-08                   CHD =           0.0000     CHD_0                            

           TOTAL OUT =       65071.6492             TOTAL OUT =         331.5975

            IN - OUT =      -2.1916E-07              IN - OUT =      -4.6654E-09

 PERCENT DISCREPANCY =          -0.00     PERCENT DISCREPANCY =          -0.00




         TIME SUMMARY AT END OF TIME STEP   16 IN STRESS PERIOD    2
                    SECONDS     MINUTES      HOURS       DAYS        YEARS
                    -----------------------------------------------------------
   TIME STEP LENGTH 8.64000E+05  14400.      240.00      10.000     2.73785E-02
 STRESS PERIOD TIME 1.38240E+07 2.30400E+05  3840.0      160.00     0.43806    
         TOTAL TIME 1.39104E+07 2.31840E+05  3864.0      161.00     0.44079    


end timestep


start timestep kper="2" kstp="17" mode="normal"

 UBDSV1 SAVING           STO-SS ON UNIT   1099 AT TIME STEP     17, STRESS PERIOD      2
 UBDSV1 SAVING           STO-SY ON UNIT   1099 AT TIME STEP     17, STRESS PERIOD      2
 UBDSV1 SAVING     FLOW-JA-FACE ON UNIT   1099 AT TIME STEP     17, STRESS PERIOD      2
 UBDSV06 SAVING       DATA-SPDIS IN MODEL GWF              PACKAGE NPF             CONNECTED TO MODEL GWF              PACKAGE NPF              ON UNIT   1099 AT TIME STEP     17, STRESS PERIOD      2
 UBDSV06 SAVING              WEL IN MODEL GWF              PACKAGE GWF             CONNECTED TO MODEL GWF              PACKAGE WEL-1            ON UNIT   1099 AT TIME STEP     17, STRESS PERIOD      2
 UBDSV06 SAVING              DRN IN MODEL GWF              PACKAGE GWF             CONNECTED TO MODEL GWF              PACKAGE DRN-0            ON UNIT   1099 AT TIME STEP     17, STRESS PERIOD      2
 UBDSV06 SAVING              API IN MODEL GWF              PACKAGE GWF             CONNECTED TO MODEL GWF              PACKAGE MAR              ON UNIT   1099 AT TIME STEP     17, STRESS PERIOD      2
 UBDSV06 SAVING              CHD IN MODEL GWF              PACKAGE GWF             CONNECTED TO MODEL GWF              PACKAGE CHD_0            ON UNIT   1099 AT TIME STEP     17, STRESS PERIOD      2

    CALCULATED INTERCELL FLOW FOR PERIOD 2 STEP 17
(1,1,1): (1,1,2) 2.719576E-04 (1,2,1) 3.425027E-04
(1,1,2): (1,1,1) -2.719576E-04 (1,1,3) 9.725221E-04 (1,2,2) 1.376187E-03
(1,1,3): (1,1,2) -9.725221E-04 (1,1,4) 2.436630E-03 (1,2,3) 5.319227E-03
(1,1,4): (1,1,3) -2.436630E-03 (1,1,5) 3.643821E-03 (1,2,4) 1.593932E-02
(1,1,5): (1,1,4) -3.643821E-03 (1,1,6) 1.447254E-03 (1,2,5) 3.293811E-02
(1,1,6): (1,1,5) -1.447254E-03 (1,1,7) -1.446845E-03 (1,2,6) 3.929486E-02
(1,1,7): (1,1,6) 1.446845E-03 (1,1,8) -3.641539E-03 (1,2,7) 3.293933E-02
(1,1,8): (1,1,7) 3.641539E-03 (1,1,9) -2.423652E-03 (1,2,8) 1.594768E-02
(1,1,9): (1,1,8) 2.423652E-03 (1,1,10) -9.078112E-04 (1,2,9) 5.370798E-03
(1,1,10): (1,1,9) 9.078112E-04 (1,2,10) 1.657482E-03
(1,2,1): (1,1,1) -3.425027E-04 (1,2,2) 1.305641E-03 (1,3,1) 1.489118E-03
(1,2,2): (1,1,2) -1.376187E-03 (1,2,1) -1.305641E-03 (1,2,3) 4.915546E-03 (1,3,2) 6.320540E-03
(1,2,3): (1,1,3) -5.319227E-03 (1,2,2) -4.915546E-03 (1,2,4) 1.305641E-02 (1,3,3) 2.577711E-02
(1,2,4): (1,1,4) -1.593932E-02 (1,2,3) -1.305641E-02 (1,2,5) 2.064053E-02 (1,3,4) 8.172284E-02
(1,2,5): (1,1,5) -3.293811E-02 (1,2,4) -2.064053E-02 (1,2,6) 7.802004E-03 (1,3,5) 0.177809
(1,2,6): (1,1,6) -3.929486E-02 (1,2,5) -7.802004E-03 (1,2,7) -7.800383E-03 (1,3,6) 0.210733
(1,2,7): (1,1,7) -3.293933E-02 (1,2,6) 7.800383E-03 (1,2,8) -2.063110E-02 (1,3,7) 0.177813
(1,2,8): (1,1,8) -1.594768E-02 (1,2,7) 2.063110E-02 (1,2,9) -1.300022E-02 (1,3,8) 8.175661E-02
(1,2,9): (1,1,9) -5.370798E-03 (1,2,8) 1.300022E-02 (1,2,10) -4.621100E-03 (1,3,9) 2.599354E-02
(1,2,10): (1,1,10) -1.657482E-03 (1,2,9) 4.621100E-03 (1,3,10) 7.555224E-03
(1,3,1): (1,2,1) -1.489118E-03 (1,3,2) 6.137054E-03 (1,4,1) 4.876146E-03
(1,3,2): (1,2,2) -6.320540E-03 (1,3,1) -6.137054E-03 (1,3,3) 2.437184E-02 (1,4,2) 2.211512E-02
(1,3,3): (1,2,3) -2.577711E-02 (1,3,2) -2.437184E-02 (1,3,4) 6.899505E-02 (1,4,3) 9.655854E-02
(1,3,4): (1,2,4) -8.172284E-02 (1,3,3) -6.899505E-02 (1,3,5) 0.116668 (1,4,4) 0.330906
(1,3,5): (1,2,5) -0.177809 (1,3,4) -0.116668 (1,3,6) 4.067128E-02 (1,4,5) 0.782001
(1,3,6): (1,2,6) -0.210733 (1,3,5) -4.067128E-02 (1,3,7) -4.066490E-02 (1,4,6) 0.909538
(1,3,7): (1,2,7) -0.177813 (1,3,6) 4.066490E-02 (1,3,8) -0.116629 (1,4,7) 0.782015
(1,3,8): (1,2,8) -8.175661E-02 (1,3,7) 0.116629 (1,3,9) -6.875606E-02 (1,4,8) 0.331008
(1,3,9): (1,2,9) -2.599354E-02 (1,3,8) 6.875606E-02 (1,3,10) -2.305888E-02 (1,4,9) 9.723854E-02
(1,3,10): (1,2,10) -7.555224E-03 (1,3,9) 2.305888E-02 (1,4,10) 2.620169E-02
(1,4,1): (1,3,1) -4.876146E-03 (1,4,2) 2.337624E-02 (1,5,1) 1.066013E-02
(1,4,2): (1,3,2) -2.211512E-02 (1,4,1) -2.337624E-02 (1,4,3) 9.881694E-02 (1,5,2) 5.245864E-02
(1,4,3): (1,3,3) -9.655854E-02 (1,4,2) -9.881694E-02 (1,4,4) 0.303278 (1,5,3) 0.251100
(1,4,4): (1,3,4) -0.330906 (1,4,3) -0.303278 (1,4,5) 0.566815 (1,5,4) 0.971327
(1,4,5): (1,3,5) -0.782001 (1,4,4) -0.566815 (1,4,6) 0.167293 (1,5,5) 2.71238
(1,4,6): (1,3,6) -0.909538 (1,4,5) -0.167293 (1,4,7) -0.167272 (1,5,6) 2.98181
(1,4,7): (1,3,7) -0.782015 (1,4,6) 0.167272 (1,4,8) -0.566688 (1,5,7) 2.71241
(1,4,8): (1,3,8) -0.331008 (1,4,7) 0.566688 (1,4,9) -0.302459 (1,5,8) 0.971531
(1,4,9): (1,3,9) -9.723854E-02 (1,4,8) 0.302459 (1,4,10) -9.409350E-02 (1,5,9) 0.252516
(1,4,10): (1,3,10) -2.620169E-02 (1,4,9) 9.409350E-02 (1,5,10) 6.149841E-02
(1,5,1): (1,4,1) -1.066013E-02 (1,5,2) 6.518005E-02 (1,6,1) 8.528511E-03
(1,5,2): (1,4,2) -5.245864E-02 (1,5,1) -6.518005E-02 (1,5,3) 0.297550 (1,6,2) 4.813272E-02
(1,5,3): (1,4,3) -0.251100 (1,5,2) -0.297550 (1,5,4) 1.02387 (1,6,3) 0.275605
(1,5,4): (1,4,4) -0.971327 (1,5,3) -1.02387 (1,5,5) 2.30128 (1,6,4) 1.42855
(1,5,5): (1,4,5) -2.71238 (1,5,4) -2.30128 (1,5,6) 0.430625 (1,6,5) 7.02893
(1,5,6): (1,4,6) -2.98181 (1,5,5) -0.430625 (1,5,7) -0.430573 (1,6,6) 6.28886
(1,5,7): (1,4,7) -2.71241 (1,5,6) 0.430573 (1,5,8) -2.30098 (1,6,7) 7.02898
(1,5,8): (1,4,8) -0.971531 (1,5,7) 2.30098 (1,5,9) -1.02182 (1,6,8) 1.42870
(1,5,9): (1,4,9) -0.252516 (1,5,8) 1.02182 (1,5,10) -0.285173 (1,6,9) 0.276649
(1,5,10): (1,4,10) -6.149841E-02 (1,5,9) 0.285173 (1,6,10) 5.548081E-02
(1,6,1): (1,5,1) -8.528511E-03 (1,6,2) 0.104807 (1,7,1) -1.968090E-02
(1,6,2): (1,5,2) -4.813272E-02 (1,6,1) -0.104807 (1,6,3) 0.525582 (1,7,2) -0.110703
(1,6,3): (1,5,3) -0.275605 (1,6,2) -0.525582 (1,6,4) 2.18503 (1,7,3) -0.628374
(1,6,4): (1,5,4) -1.42855 (1,6,3) -2.18503 (1,6,5) 7.94322 (1,7,4) -3.14717
(1,6,5): (1,5,5) -7.02893 (1,6,4) -7.94322 (1,6,6) -0.270617 (1,7,5) -14.0419
(1,6,6): (1,5,6) -6.28886 (1,6,5) 0.270617 (1,6,7) 0.270720 (1,7,6) -25.2774
(1,6,7): (1,5,7) -7.02898 (1,6,6) -0.270720 (1,6,8) -7.94281 (1,7,7) -14.0419
(1,6,8): (1,5,8) -1.42870 (1,6,7) 7.94281 (1,6,9) -2.18204 (1,7,8) -3.14751
(1,6,9): (1,5,9) -0.276649 (1,6,8) 2.18204 (1,6,10) -0.506843 (1,7,9) -0.630800
(1,6,10): (1,5,10) -5.548081E-02 (1,6,9) 0.506843 (1,7,10) -0.127657
(1,7,1): (1,6,1) 1.968090E-02 (1,7,2) 1.379010E-02 (1,8,1) -1.741051E-02
(1,7,2): (1,6,2) 0.110703 (1,7,1) -1.379010E-02 (1,7,3) 8.435630E-03 (1,8,2) -9.636808E-02
(1,7,3): (1,6,3) 0.628374 (1,7,2) -8.435630E-03 (1,7,4) -0.311916 (1,8,3) -0.549248
(1,7,4): (1,6,4) 3.14717 (1,7,3) 0.311916 (1,7,5) -2.47511 (1,8,4) -2.83618
(1,7,5): (1,6,5) 14.0419 (1,7,4) 2.47511 (1,7,6) -10.2210 (1,8,5) -13.3288
(1,7,6): (1,6,6) 25.2774 (1,7,5) 10.2210 (1,7,7) 10.2210 (1,8,6) -59.7640
(1,7,7): (1,6,7) 14.0419 (1,7,6) -10.2210 (1,7,8) 2.47526 (1,8,7) -13.3288
(1,7,8): (1,6,8) 3.14751 (1,7,7) -2.47526 (1,7,9) 0.312760 (1,8,8) -2.83647
(1,7,9): (1,6,9) 0.630800 (1,7,8) -0.312760 (1,7,10) -4.315151E-03 (1,8,9) -0.551417
(1,7,10): (1,6,10) 0.127657 (1,7,9) 4.315151E-03 (1,8,10) -0.111296
(1,8,1): (1,7,1) 1.741051E-02 (1,8,2) -6.514474E-02 (1,9,1) 9.107974E-03
(1,8,2): (1,7,2) 9.636808E-02 (1,8,1) 6.514474E-02 (1,8,3) -0.443971 (1,9,2) 6.440654E-02
(1,8,3): (1,7,3) 0.549248 (1,8,2) 0.443971 (1,8,4) -2.59340 (1,9,3) 0.439134
(1,8,4): (1,7,4) 2.83618 (1,8,3) 2.59340 (1,8,5) -12.9284 (1,9,4) 2.57770
(1,8,5): (1,7,5) 13.3288 (1,8,4) 12.9284 (1,8,6) -54.8917 (1,9,5) 12.9839
(1,8,6): (1,7,6) 59.7640 (1,8,5) 54.8917 (1,8,7) 54.8917 (1,9,6) 59.2070
(1,8,7): (1,7,7) 13.3288 (1,8,6) -54.8917 (1,8,8) 12.9282 (1,9,7) 12.9839
(1,8,8): (1,7,8) 2.83647 (1,8,7) -12.9282 (1,8,9) 2.59234 (1,9,8) 2.57779
(1,8,9): (1,7,9) 0.551417 (1,8,8) -2.59234 (1,8,10) 0.435298 (1,9,9) 0.440042
(1,8,10): (1,7,10) 0.111296 (1,8,9) -0.435298 (1,9,10) 7.250370E-02
(1,9,1): (1,8,1) -9.107974E-03 (1,9,2) -9.845772E-03 (1,10,1) 1.430536E-02
(1,9,2): (1,8,2) -6.440654E-02 (1,9,1) 9.845772E-03 (1,9,3) -6.922526E-02 (1,10,2) 9.093482E-02
(1,9,3): (1,8,3) -0.439134 (1,9,2) 6.922526E-02 (1,9,4) -0.454499 (1,10,3) 0.571561
(1,9,4): (1,8,4) -2.57770 (1,9,3) 0.454499 (1,9,5) -2.52765 (1,10,4) 3.09905
(1,9,5): (1,8,5) -12.9839 (1,9,4) 2.52765 (1,9,6) -10.2337 (1,10,5) 14.3849
(1,9,6): (1,8,6) -59.2070 (1,9,5) 10.2337 (1,9,7) 10.2337 (1,10,6) 25.6587
(1,9,7): (1,8,7) -12.9839 (1,9,6) -10.2337 (1,9,8) 2.52762 (1,10,7) 14.3849
(1,9,8): (1,8,8) -2.57779 (1,9,7) -2.52762 (1,9,9) 0.454285 (1,10,8) 3.09924
(1,9,9): (1,8,9) -0.440042 (1,9,8) -0.454285 (1,9,10) 6.777763E-02 (1,10,9) 0.573156
(1,9,10): (1,8,10) -7.250370E-02 (1,9,9) -6.777763E-02 (1,10,10) 0.103462
(1,10,1): (1,9,1) -1.430536E-02 (1,10,2) 6.676617E-02 (1,11,1) -4.408554E-03
(1,10,2): (1,9,2) -9.093482E-02 (1,10,1) -6.676617E-02 (1,10,3) 0.410684 (1,11,2) -3.329930E-02
(1,10,3): (1,9,3) -0.571561 (1,10,2) -0.410684 (1,10,4) 2.04992 (1,11,3) -0.237584
(1,10,4): (1,9,4) -3.09905 (1,10,3) -2.04992 (1,10,5) 8.26329 (1,11,4) -1.43654
(1,10,5): (1,9,5) -14.3849 (1,10,4) -8.26329 (1,10,6) -0.280963 (1,11,5) -7.48021
(1,10,6): (1,9,6) -25.6587 (1,10,5) 0.280963 (1,10,7) 0.280998 (1,11,6) -6.81931
(1,10,7): (1,9,7) -14.3849 (1,10,6) -0.280998 (1,10,8) -8.26316 (1,11,7) -7.48023
(1,10,8): (1,9,8) -3.09924 (1,10,7) 8.26316 (1,10,9) -2.04871 (1,11,8) -1.43658
(1,10,9): (1,9,9) -0.573156 (1,10,8) 2.04871 (1,10,10) -0.401162 (1,11,9) -0.238000
(1,10,10): (1,9,10) -0.103462 (1,10,9) 0.401162 (1,11,10) -3.725663E-02
(1,11,1): (1,10,1) 4.408554E-03 (1,11,2) 3.786578E-02 (1,12,1) -5.169381E-03
(1,11,2): (1,10,2) 3.329930E-02 (1,11,1) -3.786578E-02 (1,11,3) 0.206048 (1,12,2) -3.120489E-02
(1,11,3): (1,10,3) 0.237584 (1,11,2) -0.206048 (1,11,4) 0.843996 (1,12,3) -0.178521
(1,11,4): (1,10,4) 1.43654 (1,11,3) -0.843996 (1,11,5) 2.18119 (1,12,4) -0.809794
(1,11,5): (1,10,5) 7.48021 (1,11,4) -2.18119 (1,11,6) 0.342659 (1,12,5) -2.53835
(1,11,6): (1,10,6) 6.81931 (1,11,5) -0.342659 (1,11,7) -0.342644 (1,12,6) -2.77141
(1,11,7): (1,10,7) 7.48023 (1,11,6) 0.342644 (1,11,8) -2.18109 (1,12,7) -2.53836
(1,11,8): (1,10,8) 1.43658 (1,11,7) 2.18109 (1,11,9) -0.843178 (1,12,8) -0.809864
(1,11,9): (1,10,9) 0.238000 (1,11,8) 0.843178 (1,11,10) -0.200094 (1,12,9) -0.179107
(1,11,10): (1,10,10) 3.725663E-02 (1,11,9) 0.200094 (1,12,10) -3.571897E-02
(1,12,1): (1,11,1) 5.169381E-03 (1,12,2) 1.182853E-02 (1,13,1) -2.058386E-03
(1,12,2): (1,11,2) 3.120489E-02 (1,12,1) -1.182853E-02 (1,12,3) 5.869214E-02 (1,13,2) -1.120030E-02
(1,12,3): (1,11,3) 0.178521 (1,12,2) -5.869214E-02 (1,12,4) 0.212512 (1,13,3) -5.753076E-02
(1,12,4): (1,11,4) 0.809794 (1,12,3) -0.212512 (1,12,5) 0.458373 (1,13,4) -0.229254
(1,12,5): (1,11,5) 2.53835 (1,12,4) -0.458373 (1,12,6) 0.114698 (1,13,5) -0.609260
(1,12,6): (1,11,6) 2.77141 (1,12,5) -0.114698 (1,12,7) -0.114693 (1,13,6) -0.700772
(1,12,7): (1,11,7) 2.53836 (1,12,6) 0.114693 (1,12,8) -0.458334 (1,13,7) -0.609264
(1,12,8): (1,11,8) 0.809864 (1,12,7) 0.458334 (1,12,9) -0.212216 (1,13,8) -0.229286
(1,12,9): (1,11,9) 0.179107 (1,12,8) 0.212216 (1,12,10) -5.667674E-02 (1,13,9) -5.778127E-02
(1,12,10): (1,11,10) 3.571897E-02 (1,12,9) 5.667674E-02 (1,13,10) -1.297402E-02
(1,13,1): (1,12,1) 2.058386E-03 (1,13,2) 2.686563E-03 (1,14,1) -5.456701E-04
(1,13,2): (1,12,2) 1.120030E-02 (1,13,1) -2.686563E-03 (1,13,3) 1.236114E-02 (1,14,2) -2.737413E-03
(1,13,3): (1,12,3) 5.753076E-02 (1,13,2) -1.236114E-02 (1,13,4) 4.081756E-02 (1,14,3) -1.296530E-02
(1,13,4): (1,12,4) 0.229254 (1,13,3) -4.081756E-02 (1,13,5) 7.893026E-02 (1,14,4) -4.725245E-02
(1,13,5): (1,12,5) 0.609260 (1,13,4) -7.893026E-02 (1,13,6) 2.370906E-02 (1,14,5) -0.114540
(1,13,6): (1,12,6) 0.700772 (1,13,5) -2.370906E-02 (1,13,7) -2.370755E-02 (1,14,6) -0.134404
(1,13,7): (1,12,7) 0.609264 (1,13,6) 2.370755E-02 (1,13,8) -7.891963E-02 (1,14,7) -0.114541
(1,13,8): (1,12,8) 0.229286 (1,13,7) 7.891963E-02 (1,13,9) -4.074081E-02 (1,14,8) -4.726191E-02
(1,13,9): (1,12,9) 5.778127E-02 (1,13,8) 4.074081E-02 (1,13,10) -1.186998E-02 (1,14,9) -1.303552E-02
(1,13,10): (1,12,10) 1.297402E-02 (1,13,9) 1.186998E-02 (1,14,10) -3.202327E-03
(1,14,1): (1,13,1) 5.456701E-04 (1,14,2) 4.948206E-04 (1,15,1) -1.101443E-04
(1,14,2): (1,13,2) 2.737413E-03 (1,14,1) -4.948206E-04 (1,14,3) 2.133315E-03 (1,15,2) -5.166122E-04
(1,14,3): (1,13,3) 1.296530E-02 (1,14,2) -2.133315E-03 (1,14,4) 6.532610E-03 (1,15,3) -2.292177E-03
(1,14,4): (1,13,4) 4.725245E-02 (1,14,3) -6.532610E-03 (1,14,5) 1.166656E-02 (1,15,4) -7.803693E-03
(1,14,5): (1,13,5) 0.114540 (1,14,4) -1.166656E-02 (1,14,6) 3.866860E-03 (1,15,5) -1.776799E-02
(1,14,6): (1,13,6) 0.134404 (1,14,5) -3.866860E-03 (1,14,7) -3.866513E-03 (1,15,6) -2.103212E-02
(1,14,7): (1,13,7) 0.114541 (1,14,6) 3.866513E-03 (1,14,8) -1.166423E-02 (1,15,7) -1.776826E-02
(1,14,8): (1,13,8) 4.726191E-02 (1,14,7) 1.166423E-02 (1,14,9) -6.516641E-03 (1,15,8) -7.805797E-03
(1,14,9): (1,13,9) 1.303552E-02 (1,14,8) 6.516641E-03 (1,14,10) -2.036905E-03 (1,15,9) -2.307024E-03
(1,14,10): (1,13,10) 3.202327E-03 (1,14,9) 2.036905E-03 (1,15,10) -6.095200E-04
(1,15,1): (1,14,1) 1.101443E-04 (1,15,2) 8.835276E-05
(1,15,2): (1,14,2) 5.166122E-04 (1,15,1) -8.835276E-05 (1,15,3) 3.577536E-04
(1,15,3): (1,14,3) 2.292177E-03 (1,15,2) -3.577536E-04 (1,15,4) 1.021164E-03
(1,15,4): (1,14,4) 7.803693E-03 (1,15,3) -1.021164E-03 (1,15,5) 1.702872E-03
(1,15,5): (1,14,5) 1.776799E-02 (1,15,4) -1.702872E-03 (1,15,6) 6.032875E-04
(1,15,6): (1,14,6) 2.103212E-02 (1,15,5) -6.032875E-04 (1,15,7) -6.032089E-04
(1,15,7): (1,14,7) 1.776826E-02 (1,15,6) 6.032089E-04 (1,15,8) -1.702373E-03
(1,15,8): (1,14,8) 7.805797E-03 (1,15,7) 1.702373E-03 (1,15,9) -1.017939E-03
(1,15,9): (1,14,9) 2.307024E-03 (1,15,8) 1.017939E-03 (1,15,10) -3.394057E-04
(1,15,10): (1,14,10) 6.095200E-04 (1,15,9) 3.394057E-04

 WEL PACKAGE (WEL-1) FLOW RATES   PERIOD      2   STEP       17
 ----------------------------------------------------------------------------------------
   NUMBER   CELLID                    RATE       NAME                                    
 ----------------------------------------------------------------------------------------
     1      (1,8,6)              -270.00000      WEL                                     
 ----------------------------------------------------------------------------------------




 DRN PACKAGE (DRN-0) FLOW RATES   PERIOD      2   STEP       17
 ----------------------------------------------------------------------------------------
   NUMBER   CELLID                    RATE       NAME                                    
 ----------------------------------------------------------------------------------------
     1      (1,1,1)               0.0000000      SURF                                    
     2      (1,1,2)               0.0000000      SURF                                    
     3      (1,1,3)               0.0000000      SURF                                    
     4      (1,1,4)               0.0000000      SURF                                    
     5      (1,1,5)               0.0000000      SURF                                    
     6      (1,1,6)               0.0000000      SURF                                    
     7      (1,1,7)               0.0000000      SURF                                    
     8      (1,1,8)               0.0000000      SURF                                    
     9      (1,1,9)               0.0000000      SURF                                    
     10     (1,1,10)              0.0000000      SURF                                    
     11     (1,2,1)               0.0000000      SURF                                    
     12     (1,2,2)               0.0000000      SURF                                    
     13     (1,2,3)               0.0000000      SURF                                    
     14     (1,2,4)               0.0000000      SURF                                    
     15     (1,2,5)               0.0000000      SURF                                    
     16     (1,2,6)               0.0000000      SURF                                    
     17     (1,2,7)               0.0000000      SURF                                    
     18     (1,2,8)               0.0000000      SURF                                    
     19     (1,2,9)               0.0000000      SURF                                    
     20     (1,2,10)              0.0000000      SURF                                    
     21     (1,3,1)               0.0000000      SURF                                    
     22     (1,3,2)               0.0000000      SURF                                    
     23     (1,3,3)               0.0000000      SURF                                    
     24     (1,3,4)               0.0000000      SURF                                    
     25     (1,3,5)               0.0000000      SURF                                    
     26     (1,3,6)               0.0000000      SURF                                    
     27     (1,3,7)               0.0000000      SURF                                    
     28     (1,3,8)               0.0000000      SURF                                    
     29     (1,3,9)               0.0000000      SURF                                    
     30     (1,3,10)              0.0000000      SURF                                    
     31     (1,4,1)               0.0000000      SURF                                    
     32     (1,4,2)               0.0000000      SURF                                    
     33     (1,4,3)               0.0000000      SURF                                    
     34     (1,4,4)               0.0000000      SURF                                    
     35     (1,4,5)               0.0000000      SURF                                    
     36     (1,4,6)               0.0000000      SURF                                    
     37     (1,4,7)               0.0000000      SURF                                    
     38     (1,4,8)               0.0000000      SURF                                    
     39     (1,4,9)               0.0000000      SURF                                    
     40     (1,4,10)              0.0000000      SURF                                    
     41     (1,5,1)               0.0000000      SURF                                    
     42     (1,5,2)               0.0000000      SURF                                    
     43     (1,5,3)               0.0000000      SURF                                    
     44     (1,5,4)               0.0000000      SURF                                    
     45     (1,5,5)               0.0000000      SURF                                    
     46     (1,5,6)               0.0000000      SURF                                    
     47     (1,5,7)               0.0000000      SURF                                    
     48     (1,5,8)               0.0000000      SURF                                    
     49     (1,5,9)               0.0000000      SURF                                    
     50     (1,5,10)              0.0000000      SURF                                    
     51     (1,6,1)               0.0000000      SURF                                    
     52     (1,6,2)               0.0000000      SURF                                    
     53     (1,6,3)               0.0000000      SURF                                    
     54     (1,6,4)               0.0000000      SURF                                    
     55     (1,6,5)               0.0000000      SURF                                    
     56     (1,6,6)               0.0000000      SURF                                    
     57     (1,6,7)              -5.10772225E-09 SURF                                    
     58     (1,6,8)               0.0000000      SURF                                    
     59     (1,6,9)               0.0000000      SURF                                    
     60     (1,6,10)              0.0000000      SURF                                    
     61     (1,7,1)               0.0000000      SURF                                    
     62     (1,7,2)               0.0000000      SURF                                    
     63     (1,7,3)               0.0000000      SURF                                    
     64     (1,7,4)               0.0000000      SURF                                    
     65     (1,7,5)               0.0000000      SURF                                    
     66     (1,7,6)               0.0000000      SURF                                    
     67     (1,7,7)               0.0000000      SURF                                    
     68     (1,7,8)               0.0000000      SURF                                    
     69     (1,7,9)               0.0000000      SURF                                    
     70     (1,7,10)              0.0000000      SURF                                    
     71     (1,8,1)               0.0000000      SURF                                    
     72     (1,8,2)               0.0000000      SURF                                    
     73     (1,8,3)               0.0000000      SURF                                    
     74     (1,8,4)               0.0000000      SURF                                    
     75     (1,8,5)               0.0000000      SURF                                    
     76     (1,8,6)               0.0000000      SURF                                    
     77     (1,8,7)               0.0000000      SURF                                    
     78     (1,8,8)               0.0000000      SURF                                    
     79     (1,8,9)               0.0000000      SURF                                    
     80     (1,8,10)              0.0000000      SURF                                    
     81     (1,9,1)               0.0000000      SURF                                    
     82     (1,9,2)               0.0000000      SURF                                    
     83     (1,9,3)               0.0000000      SURF                                    
     84     (1,9,4)               0.0000000      SURF                                    
     85     (1,9,5)               0.0000000      SURF                                    
     86     (1,9,6)               0.0000000      SURF                                    
     87     (1,9,7)               0.0000000      SURF                                    
     88     (1,9,8)               0.0000000      SURF                                    
     89     (1,9,9)               0.0000000      SURF                                    
     90     (1,9,10)              0.0000000      SURF                                    
     91     (1,10,1)              0.0000000      SURF                                    
     92     (1,10,2)              0.0000000      SURF                                    
     93     (1,10,3)              0.0000000      SURF                                    
     94     (1,10,4)              0.0000000      SURF                                    
     95     (1,10,5)              0.0000000      SURF                                    
     96     (1,10,6)              0.0000000      SURF                                    
     97     (1,10,7)             -1.39218173E-07 SURF                                    
     98     (1,10,8)              0.0000000      SURF                                    
     99     (1,10,9)              0.0000000      SURF                                    
    100     (1,10,10)             0.0000000      SURF                                    
    101     (1,11,1)              0.0000000      SURF                                    
    102     (1,11,2)              0.0000000      SURF                                    
    103     (1,11,3)              0.0000000      SURF                                    
    104     (1,11,4)              0.0000000      SURF                                    
    105     (1,11,5)              0.0000000      SURF                                    
    106     (1,11,6)              0.0000000      SURF                                    
    107     (1,11,7)              0.0000000      SURF                                    
    108     (1,11,8)              0.0000000      SURF                                    
    109     (1,11,9)              0.0000000      SURF                                    
    110     (1,11,10)             0.0000000      SURF                                    
    111     (1,12,1)              0.0000000      SURF                                    
    112     (1,12,2)              0.0000000      SURF                                    
    113     (1,12,3)              0.0000000      SURF                                    
    114     (1,12,4)              0.0000000      SURF                                    
    115     (1,12,5)              0.0000000      SURF                                    
    116     (1,12,6)              0.0000000      SURF                                    
    117     (1,12,7)              0.0000000      SURF                                    
    118     (1,12,8)              0.0000000      SURF                                    
    119     (1,12,9)              0.0000000      SURF                                    
    120     (1,12,10)             0.0000000      SURF                                    
    121     (1,13,1)              0.0000000      SURF                                    
    122     (1,13,2)              0.0000000      SURF                                    
    123     (1,13,3)              0.0000000      SURF                                    
    124     (1,13,4)              0.0000000      SURF                                    
    125     (1,13,5)              0.0000000      SURF                                    
    126     (1,13,6)              0.0000000      SURF                                    
    127     (1,13,7)              0.0000000      SURF                                    
    128     (1,13,8)              0.0000000      SURF                                    
    129     (1,13,9)              0.0000000      SURF                                    
    130     (1,13,10)             0.0000000      SURF                                    
    131     (1,14,1)              0.0000000      SURF                                    
    132     (1,14,2)              0.0000000      SURF                                    
    133     (1,14,3)              0.0000000      SURF                                    
    134     (1,14,4)              0.0000000      SURF                                    
    135     (1,14,5)              0.0000000      SURF                                    
    136     (1,14,6)              0.0000000      SURF                                    
    137     (1,14,7)              0.0000000      SURF                                    
    138     (1,14,8)              0.0000000      SURF                                    
    139     (1,14,9)              0.0000000      SURF                                    
    140     (1,14,10)             0.0000000      SURF                                    
    141     (1,15,1)              0.0000000      SURF                                    
    142     (1,15,2)              0.0000000      SURF                                    
    143     (1,15,3)              0.0000000      SURF                                    
    144     (1,15,4)              0.0000000      SURF                                    
    145     (1,15,5)              0.0000000      SURF                                    
    146     (1,15,6)              0.0000000      SURF                                    
    147     (1,15,7)              0.0000000      SURF                                    
    148     (1,15,8)              0.0000000      SURF                                    
    149     (1,15,9)              0.0000000      SURF                                    
    150     (1,15,10)             0.0000000      SURF                                    
 ----------------------------------------------------------------------------------------




 API PACKAGE (MAR) FLOW RATES   PERIOD      2   STEP       17
 -----------------------------------------------
   NUMBER   CELLID                    RATE      
 -----------------------------------------------
     1      (1,6,5)               29.284457     
     2      (1,6,6)               29.284457     
     3      (1,6,7)               29.284457     
     4      (1,10,5)              30.409318     
     5      (1,10,6)              30.409318     
     6      (1,10,7)              30.409318     
 -----------------------------------------------



1
  HEAD IN LAYER   1 AT END OF TIME STEP  17 IN STRESS PERIOD    2
  ---------------------------------------------------------------------------

            1           2           3           4           5           6           7           8           9          10
 ........................................................................................................................
   1   9.9213E-06  3.7117E-05  1.3437E-04  3.7802E-04  7.4238E-04  8.8709E-04  7.4242E-04  3.7829E-04  1.3593E-04  4.5155E-05
   2   4.4171E-05  1.7473E-04  6.6625E-04  1.9716E-03  4.0349E-03  4.8147E-03  4.0350E-03  1.9727E-03  6.7298E-04  2.1090E-04
   3   1.9308E-04  8.0674E-04  3.2431E-03  1.0136E-02  2.1777E-02  2.5834E-02  2.1778E-02  1.0140E-02  3.2715E-03  9.6635E-04
   4   6.8066E-04  3.0176E-03  1.2887E-02  4.3084E-02  9.9209E-02  0.1157      9.9211E-02  4.3099E-02  1.2983E-02  3.5856E-03
   5   1.7465E-03  8.2591E-03  3.7902E-02  0.1389      0.3610      0.4024      0.3610      0.1389      3.8138E-02  9.7294E-03
   6   2.5991E-03  1.3066E-02  6.5283E-02  0.2779       1.000      0.9754       1.000      0.2779      6.5623E-02  1.5269E-02
   7   6.3154E-04  2.0103E-03  2.8536E-03 -2.8329E-02 -0.2765      -1.328     -0.2765     -2.8313E-02  2.9542E-03  2.5228E-03
   8  -1.1094E-03 -7.6246E-03 -5.2056E-02 -0.3128      -1.647      -8.219      -1.647     -0.3128     -5.2171E-02 -8.6039E-03
   9  -1.9859E-04 -1.1832E-03 -8.1065E-03 -5.3593E-02 -0.3077      -1.364     -0.3077     -5.3597E-02 -8.1312E-03 -1.3526E-03
  10   1.2318E-03  7.9031E-03  4.8772E-02  0.2488       1.000      0.9745       1.000      0.2488      4.8905E-02  8.9844E-03
  11   7.9097E-04  4.5758E-03  2.5129E-02  0.1086      0.3200      0.3531      0.3200      0.1086      2.5221E-02  5.2621E-03
  12   2.7408E-04  1.4568E-03  7.3217E-03  2.8512E-02  7.4013E-02  8.5386E-02  7.4013E-02  2.8517E-02  7.3556E-03  1.6921E-03
  13   6.8243E-05  3.3689E-04  1.5728E-03  5.6523E-03  1.3535E-02  1.5902E-02  1.3535E-02  5.6535E-03  1.5817E-03  3.9488E-04
  14   1.3676E-05  6.3158E-05  2.7648E-04  9.2968E-04  2.0961E-03  2.4827E-03  2.0961E-03  9.2995E-04  2.7835E-04  7.4664E-05
  15   2.6616E-06  1.1497E-05  4.7272E-05  1.4939E-04  3.1967E-04  3.8000E-04  3.1968E-04  1.4944E-04  4.7652E-05  1.3712E-05

 HEAD WILL BE SAVED ON UNIT 1100 AT END OF TIME STEP   17, STRESS PERIOD    2


  VOLUME BUDGET FOR ENTIRE MODEL AT END OF TIME STEP   17, STRESS PERIOD   2
  ---------------------------------------------------------------------------------------------------

     CUMULATIVE VOLUME      L**3       RATES FOR THIS TIME STEP      L**3/T          PACKAGE NAME    
     ------------------                 ------------------------                     ----------------

           IN:                                      IN:
           ---                                      ---
              STO-SS =          12.6875                STO-SS =       5.3641E-02     STORAGE                          
              STO-SY =       33074.6693                STO-SY =         150.0862     STORAGE                          
                 WEL =           0.0000                   WEL =           0.0000     WEL-1                            
                 DRN =           0.0000                   DRN =           0.0000     DRN-0                            
                 API =       35276.5039                   API =         179.0813     MAR                              
                 CHD =       2.0279E-08                   CHD =           0.0000     CHD_0                            

            TOTAL IN =       68363.8606              TOTAL IN =         329.2211

          OUT:                                     OUT:
          ----                                     ----
              STO-SS =          11.5876                STO-SS =       3.0069E-02     STORAGE                          
              STO-SY =       22452.2730                STO-SY =          59.1911     STORAGE                          
                 WEL =       45900.0000                   WEL =         270.0000     WEL-1                            
                 DRN =       4.5843E-05                   DRN =       1.4433E-07     DRN-0                            
                 API =           0.0000                   API =           0.0000     MAR                              
                 CHD =       2.0705E-08                   CHD =           0.0000     CHD_0                            

           TOTAL OUT =       68363.8606             TOTAL OUT =         329.2211

            IN - OUT =      -2.6551E-07              IN - OUT =      -4.6363E-09

 PERCENT DISCREPANCY =          -0.00     PERCENT DISCREPANCY =          -0.00




         TIME SUMMARY AT END OF TIME STEP   17 IN STRESS PERIOD    2
                    SECONDS     MINUTES      HOURS       DAYS        YEARS
                    -----------------------------------------------------------
   TIME STEP LENGTH 8.64000E+05  14400.      240.00      10.000     2.73785E-02
 STRESS PERIOD TIME 1.46880E+07 2.44800E+05  4080.0      170.00     0.46543    
         TOTAL TIME 1.47744E+07 2.46240E+05  4104.0      171.00     0.46817    


end timestep


start timestep kper="2" kstp="18" mode="normal"

 UBDSV1 SAVING           STO-SS ON UNIT   1099 AT TIME STEP     18, STRESS PERIOD      2
 UBDSV1 SAVING           STO-SY ON UNIT   1099 AT TIME STEP     18, STRESS PERIOD      2
 UBDSV1 SAVING     FLOW-JA-FACE ON UNIT   1099 AT TIME STEP     18, STRESS PERIOD      2
 UBDSV06 SAVING       DATA-SPDIS IN MODEL GWF              PACKAGE NPF             CONNECTED TO MODEL GWF              PACKAGE NPF              ON UNIT   1099 AT TIME STEP     18, STRESS PERIOD      2
 UBDSV06 SAVING              WEL IN MODEL GWF              PACKAGE GWF             CONNECTED TO MODEL GWF              PACKAGE WEL-1            ON UNIT   1099 AT TIME STEP     18, STRESS PERIOD      2
 UBDSV06 SAVING              DRN IN MODEL GWF              PACKAGE GWF             CONNECTED TO MODEL GWF              PACKAGE DRN-0            ON UNIT   1099 AT TIME STEP     18, STRESS PERIOD      2
 UBDSV06 SAVING              API IN MODEL GWF              PACKAGE GWF             CONNECTED TO MODEL GWF              PACKAGE MAR              ON UNIT   1099 AT TIME STEP     18, STRESS PERIOD      2
 UBDSV06 SAVING              CHD IN MODEL GWF              PACKAGE GWF             CONNECTED TO MODEL GWF              PACKAGE CHD_0            ON UNIT   1099 AT TIME STEP     18, STRESS PERIOD      2

    CALCULATED INTERCELL FLOW FOR PERIOD 2 STEP 18
(1,1,1): (1,1,2) 3.636970E-04 (1,2,1) 4.576408E-04
(1,1,2): (1,1,1) -3.636970E-04 (1,1,3) 1.257232E-03 (1,2,2) 1.763493E-03
(1,1,3): (1,1,2) -1.257232E-03 (1,1,4) 3.039801E-03 (1,2,3) 6.571328E-03
(1,1,4): (1,1,3) -3.039801E-03 (1,1,5) 4.410516E-03 (1,2,4) 1.905157E-02
(1,1,5): (1,1,4) -4.410516E-03 (1,1,6) 1.767914E-03 (1,2,5) 3.840374E-02
(1,1,6): (1,1,5) -1.767914E-03 (1,1,7) -1.767276E-03 (1,2,6) 4.571142E-02
(1,1,7): (1,1,6) 1.767276E-03 (1,1,8) -4.407100E-03 (1,2,7) 3.840553E-02
(1,1,8): (1,1,7) 4.407100E-03 (1,1,9) -3.021080E-03 (1,2,8) 1.906351E-02
(1,1,9): (1,1,8) 3.021080E-03 (1,1,10) -1.167310E-03 (1,2,9) 6.642288E-03
(1,1,10): (1,1,9) 1.167310E-03 (1,2,10) 2.136355E-03
(1,2,1): (1,1,1) -4.576408E-04 (1,2,2) 1.669548E-03 (1,3,1) 1.913320E-03
(1,2,2): (1,1,2) -1.763493E-03 (1,2,1) -1.669548E-03 (1,2,3) 6.065043E-03 (1,3,2) 7.774703E-03
(1,2,3): (1,1,3) -6.571328E-03 (1,2,2) -6.065043E-03 (1,2,4) 1.551960E-02 (1,3,3) 3.052136E-02
(1,2,4): (1,1,4) -1.905157E-02 (1,2,3) -1.551960E-02 (1,2,5) 2.375986E-02 (1,3,4) 9.348178E-02
(1,2,5): (1,1,5) -3.840374E-02 (1,2,4) -2.375986E-02 (1,2,6) 9.072925E-03 (1,3,5) 0.198119
(1,2,6): (1,1,6) -4.571142E-02 (1,2,5) -9.072925E-03 (1,2,7) -9.070497E-03 (1,3,6) 0.234287
(1,2,7): (1,1,7) -3.840553E-02 (1,2,6) 9.070497E-03 (1,2,8) -2.374629E-02 (1,3,7) 0.198126
(1,2,8): (1,1,8) -1.906351E-02 (1,2,7) 2.374629E-02 (1,2,9) -1.544185E-02 (1,3,8) 9.352831E-02
(1,2,9): (1,1,9) -6.642288E-03 (1,2,8) 1.544185E-02 (1,2,10) -5.673199E-03 (1,3,9) 3.080826E-02
(1,2,10): (1,1,10) -2.136355E-03 (1,2,9) 5.673199E-03 (1,3,10) 9.348599E-03
(1,3,1): (1,2,1) -1.913320E-03 (1,3,2) 7.530916E-03 (1,4,1) 5.995531E-03
(1,3,2): (1,2,2) -7.774703E-03 (1,3,1) -7.530916E-03 (1,3,3) 2.881132E-02 (1,4,2) 2.599339E-02
(1,3,3): (1,2,3) -3.052136E-02 (1,3,2) -2.881132E-02 (1,3,4) 7.847059E-02 (1,4,3) 0.109129
(1,3,4): (1,2,4) -9.348178E-02 (1,3,3) -7.847059E-02 (1,3,5) 0.128325 (1,4,4) 0.361060
(1,3,5): (1,2,5) -0.198119 (1,3,4) -0.128325 (1,3,6) 4.517275E-02 (1,4,5) 0.830752
(1,3,6): (1,2,6) -0.234287 (1,3,5) -4.517275E-02 (1,3,7) -4.516351E-02 (1,4,6) 0.963660
(1,3,7): (1,2,7) -0.198126 (1,3,6) 4.516351E-02 (1,3,8) -0.128271 (1,4,7) 0.830772
(1,3,8): (1,2,8) -9.352831E-02 (1,3,7) 0.128271 (1,3,9) -7.815229E-02 (1,4,8) 0.361195
(1,3,9): (1,2,9) -3.080826E-02 (1,3,8) 7.815229E-02 (1,3,10) -2.713207E-02 (1,4,9) 0.109994
(1,3,10): (1,2,10) -9.348599E-03 (1,3,9) 2.713207E-02 (1,4,10) 3.097940E-02
(1,4,1): (1,3,1) -5.995531E-03 (1,4,2) 2.752908E-02 (1,5,1) 1.247491E-02
(1,4,2): (1,3,2) -2.599339E-02 (1,4,1) -2.752908E-02 (1,4,3) 0.111950 (1,5,2) 5.862238E-02
(1,4,3): (1,3,3) -0.109129 (1,4,2) -0.111950 (1,4,4) 0.330325 (1,5,3) 0.269830
(1,4,4): (1,3,4) -0.361060 (1,4,3) -0.330325 (1,4,5) 0.596946 (1,5,4) 1.00940
(1,4,5): (1,3,5) -0.830752 (1,4,4) -0.596946 (1,4,6) 0.177071 (1,5,5) 2.75381
(1,4,6): (1,3,6) -0.963660 (1,4,5) -0.177071 (1,4,7) -0.177042 (1,5,6) 3.01146
(1,4,7): (1,3,7) -0.830772 (1,4,6) 0.177042 (1,4,8) -0.596777 (1,5,7) 2.75385
(1,4,8): (1,3,8) -0.361195 (1,4,7) 0.596777 (1,4,9) -0.329275 (1,5,8) 1.00966
(1,4,9): (1,3,9) -0.109994 (1,4,8) 0.329275 (1,4,10) -0.106143 (1,5,9) 0.271546
(1,4,10): (1,3,10) -3.097940E-02 (1,4,9) 0.106143 (1,5,10) 6.912217E-02
(1,5,1): (1,4,1) -1.247491E-02 (1,5,2) 7.368349E-02 (1,6,1) 9.098463E-03
(1,5,2): (1,4,2) -5.862238E-02 (1,5,1) -7.368349E-02 (1,5,3) 0.323269 (1,6,2) 4.918105E-02
(1,5,3): (1,4,3) -0.269830 (1,5,2) -0.323269 (1,5,4) 1.07033 (1,6,3) 0.273197
(1,5,4): (1,4,4) -1.00940 (1,5,3) -1.07033 (1,5,5) 2.33465 (1,6,4) 1.39532
(1,5,5): (1,4,5) -2.75381 (1,5,4) -2.33465 (1,5,6) 0.428840 (1,6,5) 6.90546
(1,5,6): (1,4,6) -3.01146 (1,5,5) -0.428840 (1,5,7) -0.428771 (1,6,6) 6.07186
(1,5,7): (1,4,7) -2.75385 (1,5,6) 0.428771 (1,5,8) -2.33426 (1,6,7) 6.90551
(1,5,8): (1,4,8) -1.00966 (1,5,7) 2.33426 (1,5,9) -1.06780 (1,6,8) 1.39548
(1,5,9): (1,4,9) -0.271546 (1,5,8) 1.06780 (1,5,10) -0.308641 (1,6,9) 0.274351
(1,5,10): (1,4,10) -6.912217E-02 (1,5,9) 0.308641 (1,6,10) 5.696572E-02
(1,6,1): (1,5,1) -9.098463E-03 (1,6,2) 0.113792 (1,7,1) -2.299204E-02
(1,6,2): (1,5,2) -4.918105E-02 (1,6,1) -0.113792 (1,6,3) 0.547891 (1,7,2) -0.123952
(1,6,3): (1,5,3) -0.273197 (1,6,2) -0.547891 (1,6,4) 2.20096 (1,7,3) -0.679194
(1,6,4): (1,5,4) -1.39532 (1,6,3) -2.20096 (1,6,5) 7.88878 (1,7,4) -3.30238
(1,6,5): (1,5,5) -6.90546 (1,6,4) -7.88878 (1,6,6) -0.362368 (1,7,5) -14.4275
(1,6,6): (1,5,6) -6.07186 (1,6,5) 0.362368 (1,6,7) 0.362488 (1,7,6) -25.9062
(1,6,7): (1,5,7) -6.90551 (1,6,6) -0.362488 (1,6,8) -7.88824 (1,7,7) -14.4276
(1,6,8): (1,5,8) -1.39548 (1,6,7) 7.88824 (1,6,9) -2.19739 (1,7,8) -3.30280
(1,6,9): (1,5,9) -0.274351 (1,6,8) 2.19739 (1,6,10) -0.526567 (1,7,9) -0.682124
(1,6,10): (1,5,10) -5.696572E-02 (1,6,9) 0.526567 (1,7,10) -0.143633
(1,7,1): (1,6,1) 2.299204E-02 (1,7,2) 1.284199E-02 (1,8,1) -2.035254E-02
(1,7,2): (1,6,2) 0.123952 (1,7,1) -1.284199E-02 (1,7,3) -6.632862E-03 (1,8,2) -0.107963
(1,7,3): (1,6,3) 0.679194 (1,7,2) 6.632862E-03 (1,7,4) -0.396627 (1,8,3) -0.594132
(1,7,4): (1,6,4) 3.30238 (1,7,3) 0.396627 (1,7,5) -2.72225 (1,8,4) -2.97748
(1,7,5): (1,6,5) 14.4275 (1,7,4) 2.72225 (1,7,6) -10.4978 (1,8,5) -13.6666
(1,7,6): (1,6,6) 25.9062 (1,7,5) 10.4978 (1,7,7) 10.4978 (1,8,6) -60.3937
(1,7,7): (1,6,7) 14.4276 (1,7,6) -10.4978 (1,7,8) 2.72243 (1,8,7) -13.6667
(1,7,8): (1,6,8) 3.30280 (1,7,7) -2.72243 (1,7,9) 0.397618 (1,8,8) -2.97785
(1,7,9): (1,6,9) 0.682124 (1,7,8) -0.397618 (1,7,10) 1.110040E-02 (1,8,9) -0.596753
(1,7,10): (1,6,10) 0.143633 (1,7,9) -1.110040E-02 (1,8,10) -0.125297
(1,8,1): (1,7,1) 2.035254E-02 (1,8,2) -7.474123E-02 (1,9,1) 1.100711E-02
(1,8,2): (1,7,2) 0.107963 (1,8,1) 7.474123E-02 (1,8,3) -0.492309 (1,9,2) 7.414342E-02
(1,8,3): (1,7,3) 0.594132 (1,8,2) 0.492309 (1,8,4) -2.77525 (1,9,3) 0.484205
(1,8,4): (1,7,4) 2.97748 (1,8,3) 2.77525 (1,8,5) -13.3829 (1,9,4) 2.73399
(1,8,5): (1,7,5) 13.6666 (1,8,4) 13.3829 (1,8,6) -55.3906 (1,9,5) 13.3572
(1,8,6): (1,7,6) 60.3937 (1,8,5) 55.3906 (1,8,7) 55.3906 (1,9,6) 59.9006
(1,8,7): (1,7,7) 13.6667 (1,8,6) -55.3906 (1,8,8) 13.3827 (1,9,7) 13.3572
(1,8,8): (1,7,8) 2.97785 (1,8,7) -13.3827 (1,8,9) 2.77396 (1,9,8) 2.73411
(1,8,9): (1,7,9) 0.596753 (1,8,8) -2.77396 (1,8,10) 0.482018 (1,9,9) 0.485346
(1,8,10): (1,7,10) 0.125297 (1,8,9) -0.482018 (1,9,10) 8.387409E-02
(1,9,1): (1,8,1) -1.100711E-02 (1,9,2) -1.160455E-02 (1,10,1) 1.723318E-02
(1,9,2): (1,8,2) -7.414342E-02 (1,9,1) 1.160455E-02 (1,9,3) -8.221370E-02 (1,10,2) 0.104180
(1,9,3): (1,8,3) -0.484205 (1,9,2) 8.221370E-02 (1,9,4) -0.524548 (1,10,3) 0.626004
(1,9,4): (1,8,4) -2.73399 (1,9,3) 0.524548 (1,9,5) -2.75709 (1,10,4) 3.26161
(1,9,5): (1,8,5) -13.3572 (1,9,4) 2.75709 (1,9,6) -10.5030 (1,10,5) 14.7350
(1,9,6): (1,8,6) -59.9006 (1,9,5) 10.5030 (1,9,7) 10.5030 (1,10,6) 26.2527
(1,9,7): (1,8,7) -13.3572 (1,9,6) -10.5030 (1,9,8) 2.75705 (1,10,7) 14.7350
(1,9,8): (1,8,8) -2.73411 (1,9,7) -2.75705 (1,9,9) 0.524309 (1,10,8) 3.26186
(1,9,9): (1,8,9) -0.485346 (1,9,8) -0.524309 (1,9,10) 8.055954E-02 (1,10,9) 0.628002
(1,9,10): (1,8,10) -8.387409E-02 (1,9,9) -8.055954E-02 (1,10,10) 0.119176
(1,10,1): (1,9,1) -1.723318E-02 (1,10,2) 7.531826E-02 (1,11,1) -4.894178E-03
(1,10,2): (1,9,2) -0.104180 (1,10,1) -7.531826E-02 (1,10,3) 0.438712 (1,11,2) -3.519925E-02
(1,10,3): (1,9,3) -0.626004 (1,10,2) -0.438712 (1,10,4) 2.08446 (1,11,3) -0.240976
(1,10,4): (1,9,4) -3.26161 (1,10,3) -2.08446 (1,10,5) 8.18496 (1,11,4) -1.41413
(1,10,5): (1,9,5) -14.7350 (1,10,4) -8.18496 (1,10,6) -0.362735 (1,11,5) -7.32427
(1,10,6): (1,9,6) -26.2527 (1,10,5) 0.362735 (1,10,7) 0.362780 (1,11,6) -6.56743
(1,10,7): (1,9,7) -14.7350 (1,10,6) -0.362780 (1,10,8) -8.18478 (1,11,7) -7.32429
(1,10,8): (1,9,8) -3.26186 (1,10,7) 8.18478 (1,10,9) -2.08292 (1,11,8) -1.41418
(1,10,9): (1,9,9) -0.628002 (1,10,8) 2.08292 (1,10,10) -0.427321 (1,11,9) -0.241457
(1,10,10): (1,9,10) -0.119176 (1,10,9) 0.427321 (1,11,10) -3.956946E-02
(1,11,1): (1,10,1) 4.894178E-03 (1,11,2) 4.500106E-02 (1,12,1) -6.417879E-03
(1,11,2): (1,10,2) 3.519925E-02 (1,11,1) -4.500106E-02 (1,11,3) 0.232533 (1,12,2) -3.662566E-02
(1,11,3): (1,10,3) 0.240976 (1,11,2) -0.232533 (1,11,4) 0.903857 (1,12,3) -0.199216
(1,11,4): (1,10,4) 1.41413 (1,11,3) -0.903857 (1,11,5) 2.23351 (1,12,4) -0.862360
(1,11,5): (1,10,5) 7.32427 (1,11,4) -2.23351 (1,11,6) 0.352861 (1,12,5) -2.60704
(1,11,6): (1,10,6) 6.56743 (1,11,5) -0.352861 (1,11,7) -0.352839 (1,12,6) -2.83791
(1,11,7): (1,10,7) 7.32429 (1,11,6) 0.352839 (1,11,8) -2.23337 (1,12,7) -2.60706
(1,11,8): (1,10,8) 1.41418 (1,11,7) 2.23337 (1,11,9) -0.902776 (1,12,8) -0.862455
(1,11,9): (1,10,9) 0.241457 (1,11,8) 0.902776 (1,11,10) -0.225063 (1,12,9) -0.199976
(1,11,10): (1,10,10) 3.956946E-02 (1,11,9) 0.225063 (1,12,10) -4.218904E-02
(1,12,1): (1,11,1) 6.417879E-03 (1,12,2) 1.479075E-02 (1,13,1) -2.708956E-03
(1,12,2): (1,11,2) 3.662566E-02 (1,12,1) -1.479075E-02 (1,12,3) 6.988879E-02 (1,13,2) -1.397017E-02
(1,12,3): (1,11,3) 0.199216 (1,12,2) -6.988879E-02 (1,12,4) 0.240445 (1,13,3) -6.834824E-02
(1,12,4): (1,11,4) 0.862360 (1,12,3) -0.240445 (1,12,5) 0.494867 (1,13,4) -0.260042
(1,12,5): (1,11,5) 2.60704 (1,12,4) -0.494867 (1,12,6) 0.127134 (1,13,5) -0.665356
(1,12,6): (1,11,6) 2.83791 (1,12,5) -0.127134 (1,12,7) -0.127126 (1,13,6) -0.765223
(1,12,7): (1,11,7) 2.60706 (1,12,6) 0.127126 (1,12,8) -0.494810 (1,13,7) -0.665362
(1,12,8): (1,11,8) 0.862455 (1,12,7) 0.494810 (1,12,9) -0.240036 (1,13,8) -0.260088
(1,12,9): (1,11,9) 0.199976 (1,12,8) 0.240036 (1,12,10) -6.723667E-02 (1,13,9) -6.869150E-02
(1,12,10): (1,11,10) 4.218904E-02 (1,12,9) 6.723667E-02 (1,13,10) -1.628676E-02
(1,13,1): (1,12,1) 2.708956E-03 (1,13,2) 3.529447E-03 (1,14,1) -7.557907E-04
(1,13,2): (1,12,2) 1.397017E-02 (1,13,1) -3.529447E-03 (1,13,3) 1.550988E-02 (1,14,2) -3.603223E-03
(1,13,3): (1,12,3) 6.834824E-02 (1,13,2) -1.550988E-02 (1,13,4) 4.878913E-02 (1,14,3) -1.629697E-02
(1,13,4): (1,12,4) 0.260042 (1,13,3) -4.878913E-02 (1,13,5) 9.023028E-02 (1,14,4) -5.685054E-02
(1,13,5): (1,12,5) 0.665356 (1,13,4) -9.023028E-02 (1,13,6) 2.788760E-02 (1,14,5) -0.132995
(1,13,6): (1,12,6) 0.765223 (1,13,5) -2.788760E-02 (1,13,7) -2.788520E-02 (1,14,6) -0.156106
(1,13,7): (1,12,7) 0.665362 (1,13,6) 2.788520E-02 (1,13,8) -9.021421E-02 (1,14,7) -0.132997
(1,13,8): (1,12,8) 0.260088 (1,13,7) 9.021421E-02 (1,13,9) -4.867825E-02 (1,14,8) -5.686476E-02
(1,13,9): (1,12,9) 6.869150E-02 (1,13,8) 4.867825E-02 (1,13,10) -1.483270E-02 (1,14,9) -1.639794E-02
(1,13,10): (1,12,10) 1.628676E-02 (1,13,9) 1.483270E-02 (1,14,10) -4.242162E-03
(1,14,1): (1,13,1) 7.557907E-04 (1,14,2) 6.820168E-04 (1,15,1) -1.596396E-04
(1,14,2): (1,13,2) 3.603223E-03 (1,14,1) -6.820168E-04 (1,14,3) 2.816229E-03 (1,15,2) -7.135271E-04
(1,14,3): (1,13,3) 1.629697E-02 (1,14,2) -2.816229E-03 (1,14,4) 8.238824E-03 (1,15,3) -3.031460E-03
(1,14,4): (1,13,4) 5.685054E-02 (1,14,3) -8.238824E-03 (1,14,5) 1.411779E-02 (1,15,4) -9.907548E-03
(1,14,5): (1,13,5) 0.132995 (1,14,4) -1.411779E-02 (1,14,6) 4.806680E-03 (1,15,5) -2.183804E-02
(1,14,6): (1,13,6) 0.156106 (1,14,5) -4.806680E-03 (1,14,7) -4.806109E-03 (1,15,6) -2.585139E-02
(1,14,7): (1,13,7) 0.132997 (1,14,6) 4.806109E-03 (1,14,8) -1.411411E-02 (1,15,7) -2.183847E-02
(1,14,8): (1,13,8) 5.686476E-02 (1,14,7) 1.411411E-02 (1,14,9) -8.214739E-03 (1,15,8) -9.910841E-03
(1,14,9): (1,13,9) 1.639794E-02 (1,14,8) 8.214739E-03 (1,14,10) -2.677112E-03 (1,15,9) -3.053742E-03
(1,14,10): (1,13,10) 4.242162E-03 (1,14,9) 2.677112E-03 (1,15,10) -8.471306E-04
(1,15,1): (1,14,1) 1.596396E-04 (1,15,2) 1.281294E-04
(1,15,2): (1,14,2) 7.135271E-04 (1,15,1) -1.281294E-04 (1,15,3) 4.983006E-04
(1,15,3): (1,14,3) 3.031460E-03 (1,15,2) -4.983006E-04 (1,15,4) 1.362851E-03
(1,15,4): (1,14,4) 9.907548E-03 (1,15,3) -1.362851E-03 (1,15,5) 2.188220E-03
(1,15,5): (1,14,5) 2.183804E-02 (1,15,4) -2.188220E-03 (1,15,6) 7.941690E-04
(1,15,6): (1,14,6) 2.585139E-02 (1,15,5) -7.941690E-04 (1,15,7) -7.940342E-04
(1,15,7): (1,14,7) 2.183847E-02 (1,15,6) 7.940342E-04 (1,15,8) -2.187399E-03
(1,15,8): (1,14,8) 9.910841E-03 (1,15,7) 2.187399E-03 (1,15,9) -1.357756E-03
(1,15,9): (1,14,9) 3.053742E-03 (1,15,8) 1.357756E-03 (1,15,10) -4.705091E-04
(1,15,10): (1,14,10) 8.471306E-04 (1,15,9) 4.705091E-04

 WEL PACKAGE (WEL-1) FLOW RATES   PERIOD      2   STEP       18
 ----------------------------------------------------------------------------------------
   NUMBER   CELLID                    RATE       NAME                                    
 ----------------------------------------------------------------------------------------
     1      (1,8,6)              -270.00000      WEL                                     
 ----------------------------------------------------------------------------------------




 DRN PACKAGE (DRN-0) FLOW RATES   PERIOD      2   STEP       18
 ----------------------------------------------------------------------------------------
   NUMBER   CELLID                    RATE       NAME                                    
 ----------------------------------------------------------------------------------------
     1      (1,1,1)               0.0000000      SURF                                    
     2      (1,1,2)               0.0000000      SURF                                    
     3      (1,1,3)               0.0000000      SURF                                    
     4      (1,1,4)               0.0000000      SURF                                    
     5      (1,1,5)               0.0000000      SURF                                    
     6      (1,1,6)               0.0000000      SURF                                    
     7      (1,1,7)               0.0000000      SURF                                    
     8      (1,1,8)               0.0000000      SURF                                    
     9      (1,1,9)               0.0000000      SURF                                    
     10     (1,1,10)              0.0000000      SURF                                    
     11     (1,2,1)               0.0000000      SURF                                    
     12     (1,2,2)               0.0000000      SURF                                    
     13     (1,2,3)               0.0000000      SURF                                    
     14     (1,2,4)               0.0000000      SURF                                    
     15     (1,2,5)               0.0000000      SURF                                    
     16     (1,2,6)               0.0000000      SURF                                    
     17     (1,2,7)               0.0000000      SURF                                    
     18     (1,2,8)               0.0000000      SURF                                    
     19     (1,2,9)               0.0000000      SURF                                    
     20     (1,2,10)              0.0000000      SURF                                    
     21     (1,3,1)               0.0000000      SURF                                    
     22     (1,3,2)               0.0000000      SURF                                    
     23     (1,3,3)               0.0000000      SURF                                    
     24     (1,3,4)               0.0000000      SURF                                    
     25     (1,3,5)               0.0000000      SURF                                    
     26     (1,3,6)               0.0000000      SURF                                    
     27     (1,3,7)               0.0000000      SURF                                    
     28     (1,3,8)               0.0000000      SURF                                    
     29     (1,3,9)               0.0000000      SURF                                    
     30     (1,3,10)              0.0000000      SURF                                    
     31     (1,4,1)               0.0000000      SURF                                    
     32     (1,4,2)               0.0000000      SURF                                    
     33     (1,4,3)               0.0000000      SURF                                    
     34     (1,4,4)               0.0000000      SURF                                    
     35     (1,4,5)               0.0000000      SURF                                    
     36     (1,4,6)               0.0000000      SURF                                    
     37     (1,4,7)               0.0000000      SURF                                    
     38     (1,4,8)               0.0000000      SURF                                    
     39     (1,4,9)               0.0000000      SURF                                    
     40     (1,4,10)              0.0000000      SURF                                    
     41     (1,5,1)               0.0000000      SURF                                    
     42     (1,5,2)               0.0000000      SURF                                    
     43     (1,5,3)               0.0000000      SURF                                    
     44     (1,5,4)               0.0000000      SURF                                    
     45     (1,5,5)               0.0000000      SURF                                    
     46     (1,5,6)               0.0000000      SURF                                    
     47     (1,5,7)               0.0000000      SURF                                    
     48     (1,5,8)               0.0000000      SURF                                    
     49     (1,5,9)               0.0000000      SURF                                    
     50     (1,5,10)              0.0000000      SURF                                    
     51     (1,6,1)               0.0000000      SURF                                    
     52     (1,6,2)               0.0000000      SURF                                    
     53     (1,6,3)               0.0000000      SURF                                    
     54     (1,6,4)               0.0000000      SURF                                    
     55     (1,6,5)               0.0000000      SURF                                    
     56     (1,6,6)               0.0000000      SURF                                    
     57     (1,6,7)              -6.17001206E-09 SURF                                    
     58     (1,6,8)               0.0000000      SURF                                    
     59     (1,6,9)               0.0000000      SURF                                    
     60     (1,6,10)              0.0000000      SURF                                    
     61     (1,7,1)               0.0000000      SURF                                    
     62     (1,7,2)               0.0000000      SURF                                    
     63     (1,7,3)               0.0000000      SURF                                    
     64     (1,7,4)               0.0000000      SURF                                    
     65     (1,7,5)               0.0000000      SURF                                    
     66     (1,7,6)               0.0000000      SURF                                    
     67     (1,7,7)               0.0000000      SURF                                    
     68     (1,7,8)               0.0000000      SURF                                    
     69     (1,7,9)               0.0000000      SURF                                    
     70     (1,7,10)              0.0000000      SURF                                    
     71     (1,8,1)               0.0000000      SURF                                    
     72     (1,8,2)               0.0000000      SURF                                    
     73     (1,8,3)               0.0000000      SURF                                    
     74     (1,8,4)               0.0000000      SURF                                    
     75     (1,8,5)               0.0000000      SURF                                    
     76     (1,8,6)               0.0000000      SURF                                    
     77     (1,8,7)               0.0000000      SURF                                    
     78     (1,8,8)               0.0000000      SURF                                    
     79     (1,8,9)               0.0000000      SURF                                    
     80     (1,8,10)              0.0000000      SURF                                    
     81     (1,9,1)               0.0000000      SURF                                    
     82     (1,9,2)               0.0000000      SURF                                    
     83     (1,9,3)               0.0000000      SURF                                    
     84     (1,9,4)               0.0000000      SURF                                    
     85     (1,9,5)               0.0000000      SURF                                    
     86     (1,9,6)               0.0000000      SURF                                    
     87     (1,9,7)               0.0000000      SURF                                    
     88     (1,9,8)               0.0000000      SURF                                    
     89     (1,9,9)               0.0000000      SURF                                    
     90     (1,9,10)              0.0000000      SURF                                    
     91     (1,10,1)              0.0000000      SURF                                    
     92     (1,10,2)              0.0000000      SURF                                    
     93     (1,10,3)              0.0000000      SURF                                    
     94     (1,10,4)              0.0000000      SURF                                    
     95     (1,10,5)              0.0000000      SURF                                    
     96     (1,10,6)              0.0000000      SURF                                    
     97     (1,10,7)             -1.68802217E-07 SURF                                    
     98     (1,10,8)              0.0000000      SURF                                    
     99     (1,10,9)              0.0000000      SURF                                    
    100     (1,10,10)             0.0000000      SURF                                    
    101     (1,11,1)              0.0000000      SURF                                    
    102     (1,11,2)              0.0000000      SURF                                    
    103     (1,11,3)              0.0000000      SURF                                    
    104     (1,11,4)              0.0000000      SURF                                    
    105     (1,11,5)              0.0000000      SURF                                    
    106     (1,11,6)              0.0000000      SURF                                    
    107     (1,11,7)              0.0000000      SURF                                    
    108     (1,11,8)              0.0000000      SURF                                    
    109     (1,11,9)              0.0000000      SURF                                    
    110     (1,11,10)             0.0000000      SURF                                    
    111     (1,12,1)              0.0000000      SURF                                    
    112     (1,12,2)              0.0000000      SURF                                    
    113     (1,12,3)              0.0000000      SURF                                    
    114     (1,12,4)              0.0000000      SURF                                    
    115     (1,12,5)              0.0000000      SURF                                    
    116     (1,12,6)              0.0000000      SURF                                    
    117     (1,12,7)              0.0000000      SURF                                    
    118     (1,12,8)              0.0000000      SURF                                    
    119     (1,12,9)              0.0000000      SURF                                    
    120     (1,12,10)             0.0000000      SURF                                    
    121     (1,13,1)              0.0000000      SURF                                    
    122     (1,13,2)              0.0000000      SURF                                    
    123     (1,13,3)              0.0000000      SURF                                    
    124     (1,13,4)              0.0000000      SURF                                    
    125     (1,13,5)              0.0000000      SURF                                    
    126     (1,13,6)              0.0000000      SURF                                    
    127     (1,13,7)              0.0000000      SURF                                    
    128     (1,13,8)              0.0000000      SURF                                    
    129     (1,13,9)              0.0000000      SURF                                    
    130     (1,13,10)             0.0000000      SURF                                    
    131     (1,14,1)              0.0000000      SURF                                    
    132     (1,14,2)              0.0000000      SURF                                    
    133     (1,14,3)              0.0000000      SURF                                    
    134     (1,14,4)              0.0000000      SURF                                    
    135     (1,14,5)              0.0000000      SURF                                    
    136     (1,14,6)              0.0000000      SURF                                    
    137     (1,14,7)              0.0000000      SURF                                    
    138     (1,14,8)              0.0000000      SURF                                    
    139     (1,14,9)              0.0000000      SURF                                    
    140     (1,14,10)             0.0000000      SURF                                    
    141     (1,15,1)              0.0000000      SURF                                    
    142     (1,15,2)              0.0000000      SURF                                    
    143     (1,15,3)              0.0000000      SURF                                    
    144     (1,15,4)              0.0000000      SURF                                    
    145     (1,15,5)              0.0000000      SURF                                    
    146     (1,15,6)              0.0000000      SURF                                    
    147     (1,15,7)              0.0000000      SURF                                    
    148     (1,15,8)              0.0000000      SURF                                    
    149     (1,15,9)              0.0000000      SURF                                    
    150     (1,15,10)             0.0000000      SURF                                    
 ----------------------------------------------------------------------------------------




 API PACKAGE (MAR) FLOW RATES   PERIOD      2   STEP       18
 -----------------------------------------------
   NUMBER   CELLID                    RATE      
 -----------------------------------------------
     1      (1,6,5)               29.583796     
     2      (1,6,6)               29.583796     
     3      (1,6,7)               29.583796     
     4      (1,10,5)              30.606865     
     5      (1,10,6)              30.606865     
     6      (1,10,7)              30.606865     
 -----------------------------------------------



1
  HEAD IN LAYER   1 AT END OF TIME STEP  18 IN STRESS PERIOD    2
  ---------------------------------------------------------------------------

            1           2           3           4           5           6           7           8           9          10
 ........................................................................................................................
   1   1.4026E-05  5.0395E-05  1.7612E-04  4.8008E-04  9.2109E-04  1.0979E-03  9.2116E-04  4.8049E-04  1.7839E-04  6.1665E-05
   2   5.9790E-05  2.2674E-04  8.3319E-04  2.3848E-03  4.7596E-03  5.6664E-03  4.7599E-03  2.3864E-03  8.4257E-04  2.7529E-04
   3   2.5112E-04  1.0041E-03  3.8841E-03  1.1722E-02  2.4523E-02  2.9027E-02  2.4524E-02  1.1728E-02  3.9222E-03  1.2100E-03
   4   8.5062E-04  3.6025E-03  1.4781E-02  4.7657E-02  0.1067      0.1242      0.1067      4.7676E-02  1.4905E-02  4.3066E-03
   5   2.0978E-03  9.4592E-03  4.1652E-02  0.1471      0.3722      0.4134      0.3722      0.1472      4.1946E-02  1.1211E-02
   6   3.0074E-03  1.4370E-02  6.8785E-02  0.2828       1.000      0.9670       1.000      0.2829      6.9193E-02  1.6898E-02
   7   7.0891E-04  1.9929E-03  1.3297E-03 -3.8328E-02 -0.3116      -1.395     -0.3116     -3.8307E-02  1.4493E-03  2.5590E-03
   8  -1.3262E-03 -8.8013E-03 -5.8076E-02 -0.3372      -1.722      -8.414      -1.722     -0.3372     -5.8217E-02 -9.9675E-03
   9  -2.2546E-04 -1.3859E-03 -9.6085E-03 -6.2114E-02 -0.3395      -1.427     -0.3395     -6.2117E-02 -9.6359E-03 -1.5787E-03
  10   1.4976E-03  9.0226E-03  5.2664E-02  0.2559       1.000      0.9670       1.000      0.2559      5.2834E-02  1.0327E-02
  11   1.0083E-03  5.5059E-03  2.8693E-02  0.1180      0.3342      0.3682      0.3342      0.1180      2.8815E-02  6.3737E-03
  12   3.6653E-04  1.8453E-03  8.8280E-03  3.2794E-02  8.1879E-02  9.4473E-02  8.1880E-02  3.2800E-02  8.8752E-03  2.1575E-03
  13   9.5642E-05  4.4857E-04  1.9992E-03  6.8748E-03  1.5884E-02  1.8667E-02  1.5884E-02  6.8767E-03  2.0122E-03  5.2920E-04
  14   2.0064E-05  8.8265E-05  3.6988E-04  1.1937E-03  2.6051E-03  3.0856E-03  2.6051E-03  1.1941E-03  3.7271E-04  1.0501E-04
  15   4.0997E-06  1.6913E-05  6.6742E-05  2.0302E-04  4.2184E-04  5.0125E-04  4.2185E-04  2.0312E-04  6.7347E-05  2.0297E-05

 HEAD WILL BE SAVED ON UNIT 1100 AT END OF TIME STEP   18, STRESS PERIOD    2


  VOLUME BUDGET FOR ENTIRE MODEL AT END OF TIME STEP   18, STRESS PERIOD   2
  ---------------------------------------------------------------------------------------------------

     CUMULATIVE VOLUME      L**3       RATES FOR THIS TIME STEP      L**3/T          PACKAGE NAME    
     ------------------                 ------------------------                     ----------------

           IN:                                      IN:
           ---                                      ---
              STO-SS =          13.2098                STO-SS =       5.2236E-02     STORAGE                          
              STO-SY =       34538.3587                STO-SY =         146.3689     STORAGE                          
                 WEL =           0.0000                   WEL =           0.0000     WEL-1                            
                 DRN =           0.0000                   DRN =           0.0000     DRN-0                            
                 API =       37082.2237                   API =         180.5720     MAR                              
                 CHD =       2.0279E-08                   CHD =           0.0000     CHD_0                            

            TOTAL IN =       71633.7922              TOTAL IN =         326.9932

          OUT:                                     OUT:
          ----                                     ----
              STO-SS =          11.8769                STO-SS =       2.8938E-02     STORAGE                          
              STO-SY =       23021.9153                STO-SY =          56.9642     STORAGE                          
                 WEL =       48600.0000                   WEL =         270.0000     WEL-1                            
                 DRN =       4.7593E-05                   DRN =       1.7497E-07     DRN-0                            
                 API =           0.0000                   API =           0.0000     MAR                              
                 CHD =       2.0705E-08                   CHD =           0.0000     CHD_0                            

           TOTAL OUT =       71633.7923             TOTAL OUT =         326.9932

            IN - OUT =      -3.0731E-07              IN - OUT =      -4.1789E-09

 PERCENT DISCREPANCY =          -0.00     PERCENT DISCREPANCY =          -0.00




         TIME SUMMARY AT END OF TIME STEP   18 IN STRESS PERIOD    2
                    SECONDS     MINUTES      HOURS       DAYS        YEARS
                    -----------------------------------------------------------
   TIME STEP LENGTH 8.64000E+05  14400.      240.00      10.000     2.73785E-02
 STRESS PERIOD TIME 1.55520E+07 2.59200E+05  4320.0      180.00     0.49281    
         TOTAL TIME 1.56384E+07 2.60640E+05  4344.0      181.00     0.49555    


end timestep


start timestep kper="2" kstp="19" mode="normal"

 UBDSV1 SAVING           STO-SS ON UNIT   1099 AT TIME STEP     19, STRESS PERIOD      2
 UBDSV1 SAVING           STO-SY ON UNIT   1099 AT TIME STEP     19, STRESS PERIOD      2
 UBDSV1 SAVING     FLOW-JA-FACE ON UNIT   1099 AT TIME STEP     19, STRESS PERIOD      2
 UBDSV06 SAVING       DATA-SPDIS IN MODEL GWF              PACKAGE NPF             CONNECTED TO MODEL GWF              PACKAGE NPF              ON UNIT   1099 AT TIME STEP     19, STRESS PERIOD      2
 UBDSV06 SAVING              WEL IN MODEL GWF              PACKAGE GWF             CONNECTED TO MODEL GWF              PACKAGE WEL-1            ON UNIT   1099 AT TIME STEP     19, STRESS PERIOD      2
 UBDSV06 SAVING              DRN IN MODEL GWF              PACKAGE GWF             CONNECTED TO MODEL GWF              PACKAGE DRN-0            ON UNIT   1099 AT TIME STEP     19, STRESS PERIOD      2
 UBDSV06 SAVING              API IN MODEL GWF              PACKAGE GWF             CONNECTED TO MODEL GWF              PACKAGE MAR              ON UNIT   1099 AT TIME STEP     19, STRESS PERIOD      2
 UBDSV06 SAVING              CHD IN MODEL GWF              PACKAGE GWF             CONNECTED TO MODEL GWF              PACKAGE CHD_0            ON UNIT   1099 AT TIME STEP     19, STRESS PERIOD      2

    CALCULATED INTERCELL FLOW FOR PERIOD 2 STEP 19
(1,1,1): (1,1,2) 4.767884E-04 (1,2,1) 5.993549E-04
(1,1,2): (1,1,1) -4.767884E-04 (1,1,3) 1.596406E-03 (1,2,2) 2.219458E-03
(1,1,3): (1,1,2) -1.596406E-03 (1,1,4) 3.732809E-03 (1,2,3) 7.989266E-03
(1,1,4): (1,1,3) -3.732809E-03 (1,1,5) 5.265972E-03 (1,2,4) 2.245805E-02
(1,1,5): (1,1,4) -5.265972E-03 (1,1,6) 2.126779E-03 (1,2,5) 4.424436E-02
(1,1,6): (1,1,5) -2.126779E-03 (1,1,7) -2.125811E-03 (1,2,6) 5.253681E-02
(1,1,7): (1,1,6) 2.125811E-03 (1,1,8) -5.260984E-03 (1,2,7) 4.424694E-02
(1,1,8): (1,1,7) 5.260984E-03 (1,1,9) -3.706423E-03 (1,2,8) 2.247471E-02
(1,1,9): (1,1,8) 3.706423E-03 (1,1,10) -1.474123E-03 (1,2,9) 8.084809E-03
(1,1,10): (1,1,9) 1.474123E-03 (1,2,10) 2.703910E-03
(1,2,1): (1,1,1) -5.993549E-04 (1,2,2) 2.096889E-03 (1,3,1) 2.414270E-03
(1,2,2): (1,1,2) -2.219458E-03 (1,2,1) -2.096889E-03 (1,2,3) 7.366178E-03 (1,3,2) 9.412623E-03
(1,2,3): (1,1,3) -7.989266E-03 (1,2,2) -7.366178E-03 (1,2,4) 1.820098E-02 (1,3,3) 3.564765E-02
(1,2,4): (1,1,4) -2.245805E-02 (1,2,3) -1.820098E-02 (1,2,5) 2.704854E-02 (1,3,4) 0.105729
(1,2,5): (1,1,5) -4.424436E-02 (1,2,4) -2.704854E-02 (1,2,6) 1.041575E-02 (1,3,5) 0.218728
(1,2,6): (1,1,6) -5.253681E-02 (1,2,5) -1.041575E-02 (1,2,7) -1.041220E-02 (1,3,6) 0.258051
(1,2,7): (1,1,7) -4.424694E-02 (1,2,6) 1.041220E-02 (1,2,8) -2.702947E-02 (1,3,7) 0.218737
(1,2,8): (1,1,8) -2.247471E-02 (1,2,7) 2.702947E-02 (1,2,9) -1.809569E-02 (1,3,8) 0.105791
(1,2,9): (1,1,9) -8.084809E-03 (1,2,8) 1.809569E-02 (1,2,10) -6.854956E-03 (1,3,9) 3.602045E-02
(1,2,10): (1,1,10) -2.703910E-03 (1,2,9) 6.854956E-03 (1,3,10) 1.138303E-02
(1,3,1): (1,2,1) -2.414270E-03 (1,3,2) 9.095220E-03 (1,4,1) 7.254284E-03
(1,3,2): (1,2,2) -9.412623E-03 (1,3,1) -9.095220E-03 (1,3,3) 3.360067E-02 (1,4,2) 3.013689E-02
(1,3,3): (1,2,3) -3.564765E-02 (1,3,2) -3.360067E-02 (1,3,4) 8.826966E-02 (1,4,3) 0.121959
(1,3,4): (1,2,4) -0.105729 (1,3,3) -8.826966E-02 (1,3,5) 0.139959 (1,4,4) 0.390573
(1,3,5): (1,2,5) -0.218728 (1,3,4) -0.139959 (1,3,6) 4.965773E-02 (1,4,5) 0.877013
(1,3,6): (1,2,6) -0.258051 (1,3,5) -4.965773E-02 (1,3,7) -4.964468E-02 (1,4,6) 1.01450
(1,3,7): (1,2,7) -0.218737 (1,3,6) 4.964468E-02 (1,3,8) -0.139887 (1,4,7) 0.877039
(1,3,8): (1,2,8) -0.105791 (1,3,7) 0.139887 (1,3,9) -8.785404E-02 (1,4,8) 0.390748
(1,3,9): (1,2,9) -3.602045E-02 (1,3,8) 8.785404E-02 (1,3,10) -3.149125E-02 (1,4,9) 0.123037
(1,3,10): (1,2,10) -1.138303E-02 (1,3,9) 3.149125E-02 (1,4,10) 3.612357E-02
(1,4,1): (1,3,1) -7.254284E-03 (1,4,2) 3.197825E-02 (1,5,1) 1.439395E-02
(1,4,2): (1,3,2) -3.013689E-02 (1,4,1) -3.197825E-02 (1,4,3) 0.125426 (1,5,2) 6.476219E-02
(1,4,3): (1,3,3) -0.121959 (1,4,2) -0.125426 (1,4,4) 0.356794 (1,5,3) 0.287425
(1,4,4): (1,3,4) -0.390573 (1,4,3) -0.356794 (1,4,5) 0.625208 (1,5,4) 1.04287
(1,4,5): (1,3,5) -0.877013 (1,4,4) -0.625208 (1,4,6) 0.186046 (1,5,5) 2.78744
(1,4,6): (1,3,6) -1.01450 (1,4,5) -0.186046 (1,4,7) -0.186007 (1,5,6) 3.03222
(1,4,7): (1,3,7) -0.877039 (1,4,6) 0.186007 (1,4,8) -0.624986 (1,5,7) 2.78750
(1,4,8): (1,3,8) -0.390748 (1,4,7) 0.624986 (1,4,9) -0.355471 (1,5,8) 1.04319
(1,4,9): (1,3,9) -0.123037 (1,4,8) 0.355471 (1,4,10) -0.118401 (1,5,9) 0.289471
(1,4,10): (1,3,10) -3.612357E-02 (1,4,9) 0.118401 (1,5,10) 7.678743E-02
(1,5,1): (1,4,1) -1.439395E-02 (1,5,2) 8.235533E-02 (1,6,1) 9.537316E-03
(1,5,2): (1,4,2) -6.476219E-02 (1,5,1) -8.235533E-02 (1,5,3) 0.348222 (1,6,2) 4.954769E-02
(1,5,3): (1,4,3) -0.287425 (1,5,2) -0.348222 (1,5,4) 1.11275 (1,6,3) 0.268220
(1,5,4): (1,4,4) -1.04287 (1,5,3) -1.11275 (1,5,5) 2.36300 (1,6,4) 1.35757
(1,5,5): (1,4,5) -2.78744 (1,5,4) -2.36300 (1,5,6) 0.425209 (1,6,5) 6.79183
(1,5,6): (1,4,6) -3.03222 (1,5,5) -0.425209 (1,5,7) -0.425119 (1,6,6) 5.87159
(1,5,7): (1,4,7) -2.78750 (1,5,6) 0.425119 (1,5,8) -2.36250 (1,6,7) 6.79188
(1,5,8): (1,4,8) -1.04319 (1,5,7) 2.36250 (1,5,9) -1.10968 (1,6,8) 1.35776
(1,5,9): (1,4,9) -0.289471 (1,5,8) 1.10968 (1,5,10) -0.331172 (1,6,9) 0.269469
(1,5,10): (1,4,10) -7.678743E-02 (1,5,9) 0.331172 (1,6,10) 5.765145E-02
(1,6,1): (1,5,1) -9.537316E-03 (1,6,2) 0.122395 (1,7,1) -2.658814E-02
(1,6,2): (1,5,2) -4.954769E-02 (1,6,1) -0.122395 (1,6,3) 0.567538 (1,7,2) -0.137745
(1,6,3): (1,5,3) -0.268220 (1,6,2) -0.567538 (1,6,4) 2.21084 (1,7,3) -0.730380
(1,6,4): (1,5,4) -1.35757 (1,6,3) -2.21084 (1,6,5) 7.84368 (1,7,4) -3.45533
(1,6,5): (1,5,5) -6.79183 (1,6,4) -7.84368 (1,6,6) -0.449615 (1,7,5) -14.8098
(1,6,6): (1,5,6) -5.87159 (1,6,5) 0.449615 (1,6,7) 0.449756 (1,7,6) -26.5099
(1,6,7): (1,5,7) -6.79188 (1,6,6) -0.449756 (1,6,8) -7.84301 (1,7,7) -14.8099
(1,6,8): (1,5,8) -1.35776 (1,6,7) 7.84301 (1,6,9) -2.20665 (1,7,8) -3.45585
(1,6,9): (1,5,9) -0.269469 (1,6,8) 2.20665 (1,6,10) -0.543562 (1,7,9) -0.733876
(1,6,10): (1,5,10) -5.765145E-02 (1,6,9) 0.543562 (1,7,10) -0.160363
(1,7,1): (1,6,1) 2.658814E-02 (1,7,2) 1.125500E-02 (1,8,1) -2.348735E-02
(1,7,2): (1,6,2) 0.137745 (1,7,1) -1.125500E-02 (1,7,3) -2.415268E-02 (1,8,2) -0.119729
(1,7,3): (1,6,3) 0.730380 (1,7,2) 2.415268E-02 (1,7,4) -0.484590 (1,8,3) -0.637841
(1,7,4): (1,6,4) 3.45533 (1,7,3) 0.484590 (1,7,5) -2.95931 (1,8,4) -3.11019
(1,7,5): (1,6,5) 14.8098 (1,7,4) 2.95931 (1,7,6) -10.7494 (1,8,5) -13.9747
(1,7,6): (1,6,6) 26.5099 (1,7,5) 10.7494 (1,7,7) 10.7495 (1,8,6) -60.9600
(1,7,7): (1,6,7) 14.8099 (1,7,6) -10.7495 (1,7,8) 2.95953 (1,8,7) -13.9747
(1,7,8): (1,6,8) 3.45585 (1,7,7) -2.95953 (1,7,9) 0.485732 (1,8,8) -3.11065
(1,7,9): (1,6,9) 0.733876 (1,7,8) -0.485732 (1,7,10) 2.888624E-02 (1,8,9) -0.640961
(1,7,10): (1,6,10) 0.160363 (1,7,9) -2.888624E-02 (1,8,10) -0.139601
(1,8,1): (1,7,1) 2.348735E-02 (1,8,2) -8.495447E-02 (1,9,1) 1.310312E-02
(1,8,2): (1,7,2) 0.119729 (1,8,1) 8.495447E-02 (1,8,3) -0.541769 (1,9,2) 8.428656E-02
(1,8,3): (1,7,3) 0.637841 (1,8,2) 0.541769 (1,8,4) -2.95313 (1,9,3) 0.528773
(1,8,4): (1,7,4) 3.11019 (1,8,3) 2.95313 (1,8,5) -13.8066 (1,9,4) 2.88129
(1,8,5): (1,7,5) 13.9747 (1,8,4) 13.8066 (1,8,6) -55.8336 (1,9,5) 13.6970
(1,8,6): (1,7,6) 60.9600 (1,8,5) 55.8336 (1,8,7) 55.8335 (1,9,6) 60.5236
(1,8,7): (1,7,7) 13.9747 (1,8,6) -55.8335 (1,8,8) 13.8064 (1,9,7) 13.6970
(1,8,8): (1,7,8) 3.11065 (1,8,7) -13.8064 (1,8,9) 2.95156 (1,9,8) 2.88145
(1,8,9): (1,7,9) 0.640961 (1,8,8) -2.95156 (1,8,10) 0.529691 (1,9,9) 0.530183
(1,8,10): (1,7,10) 0.139601 (1,8,9) -0.529691 (1,9,10) 9.580501E-02
(1,9,1): (1,8,1) -1.310312E-02 (1,9,2) -1.377055E-02 (1,10,1) 2.045256E-02
(1,9,2): (1,8,2) -8.428656E-02 (1,9,1) 1.377055E-02 (1,9,3) -9.722485E-02 (1,10,2) 0.117976
(1,9,3): (1,8,3) -0.528773 (1,9,2) 9.722485E-02 (1,9,4) -0.598938 (1,10,3) 0.680259
(1,9,4): (1,8,4) -2.88129 (1,9,3) 0.598938 (1,9,5) -2.97970 (1,10,4) 3.41975
(1,9,5): (1,8,5) -13.6970 (1,9,4) 2.97970 (1,9,6) -10.7486 (1,10,5) 15.0857
(1,9,6): (1,8,6) -60.5236 (1,9,5) 10.7486 (1,9,7) 10.7486 (1,10,6) 26.8245
(1,9,7): (1,8,7) -13.6970 (1,9,6) -10.7486 (1,9,8) 2.97966 (1,10,7) 15.0857
(1,9,8): (1,8,8) -2.88145 (1,9,7) -2.97966 (1,9,9) 0.598672 (1,10,8) 3.42007
(1,9,9): (1,8,9) -0.530183 (1,9,8) -0.598672 (1,9,10) 9.531547E-02 (1,10,9) 0.682717
(1,9,10): (1,8,10) -9.580501E-02 (1,9,9) -9.531547E-02 (1,10,10) 0.135663
(1,10,1): (1,9,1) -2.045256E-02 (1,10,2) 8.372147E-02 (1,11,1) -5.291815E-03
(1,10,2): (1,9,2) -0.117976 (1,10,1) -8.372147E-02 (1,10,3) 0.463951 (1,11,2) -3.646834E-02
(1,10,3): (1,9,3) -0.680259 (1,10,2) -0.463951 (1,10,4) 2.11026 (1,11,3) -0.241197
(1,10,4): (1,9,4) -3.41975 (1,10,3) -2.11026 (1,10,5) 8.11876 (1,11,4) -1.38469
(1,10,5): (1,9,5) -15.0857 (1,10,4) -8.11876 (1,10,6) -0.442245 (1,11,5) -7.18139
(1,10,6): (1,9,6) -26.8245 (1,10,5) 0.442245 (1,10,7) 0.442302 (1,11,6) -6.33464
(1,10,7): (1,9,7) -15.0857 (1,10,6) -0.442302 (1,10,8) -8.11852 (1,11,7) -7.18141
(1,10,8): (1,9,8) -3.42007 (1,10,7) 8.11852 (1,10,9) -2.10835 (1,11,8) -1.38475
(1,10,9): (1,9,9) -0.682717 (1,10,8) 2.10835 (1,10,10) -0.450575 (1,11,9) -0.241735
(1,10,10): (1,9,10) -0.135663 (1,10,9) 0.450575 (1,11,10) -4.117082E-02
(1,11,1): (1,10,1) 5.291815E-03 (1,11,2) 5.253025E-02 (1,12,1) -7.797433E-03
(1,11,2): (1,10,2) 3.646834E-02 (1,11,1) -5.253025E-02 (1,11,3) 0.258772 (1,12,2) -4.221463E-02
(1,11,3): (1,10,3) 0.241197 (1,11,2) -0.258772 (1,11,4) 0.958916 (1,12,3) -0.219154
(1,11,4): (1,10,4) 1.38469 (1,11,3) -0.958916 (1,11,5) 2.27793 (1,12,4) -0.909417
(1,11,5): (1,10,5) 7.18139 (1,11,4) -2.27793 (1,11,6) 0.359843 (1,12,5) -2.66431
(1,11,6): (1,10,6) 6.33464 (1,11,5) -0.359843 (1,11,7) -0.359813 (1,12,6) -2.89034
(1,11,7): (1,10,7) 7.18141 (1,11,6) 0.359813 (1,11,8) -2.27774 (1,12,7) -2.66433
(1,11,8): (1,10,8) 1.38475 (1,11,7) 2.27774 (1,11,9) -0.957520 (1,12,8) -0.909544
(1,11,9): (1,10,9) 0.241735 (1,11,8) 0.957520 (1,11,10) -0.249596 (1,12,9) -0.220115
(1,11,10): (1,10,10) 4.117082E-02 (1,11,9) 0.249596 (1,12,10) -4.892476E-02
(1,12,1): (1,11,1) 7.797433E-03 (1,12,2) 1.810951E-02 (1,13,1) -3.480524E-03
(1,12,2): (1,11,2) 4.221463E-02 (1,12,1) -1.810951E-02 (1,12,3) 8.176356E-02 (1,13,2) -1.706217E-02
(1,12,3): (1,11,3) 0.219154 (1,12,2) -8.176356E-02 (1,12,4) 0.268321 (1,13,3) -7.976531E-02
(1,12,4): (1,11,4) 0.909417 (1,12,3) -0.268321 (1,12,5) 0.529293 (1,13,4) -0.290829
(1,12,5): (1,11,5) 2.66431 (1,12,4) -0.529293 (1,12,6) 0.138918 (1,13,5) -0.719180
(1,12,6): (1,11,6) 2.89034 (1,12,5) -0.138918 (1,12,7) -0.138906 (1,13,6) -0.826605
(1,12,7): (1,11,7) 2.66433 (1,12,6) 0.138906 (1,12,8) -0.529214 (1,13,7) -0.719189
(1,12,8): (1,11,8) 0.909544 (1,12,7) 0.529214 (1,12,9) -0.267770 (1,13,8) -0.290893
(1,12,9): (1,11,9) 0.220115 (1,12,8) 0.267770 (1,12,10) -7.835589E-02 (1,13,9) -8.022334E-02
(1,12,10): (1,11,10) 4.892476E-02 (1,12,9) 7.835589E-02 (1,13,10) -2.001605E-02
(1,13,1): (1,12,1) 3.480524E-03 (1,13,2) 4.527722E-03 (1,14,1) -1.019576E-03
(1,13,2): (1,12,2) 1.706217E-02 (1,13,1) -4.527722E-03 (1,13,3) 1.905918E-02 (1,14,2) -4.631570E-03
(1,13,3): (1,12,3) 7.976531E-02 (1,13,2) -1.905918E-02 (1,13,4) 5.730441E-02 (1,14,3) -2.005977E-02
(1,13,4): (1,12,4) 0.290829 (1,13,3) -5.730441E-02 (1,13,5) 0.101738 (1,14,4) -6.719079E-02
(1,13,5): (1,12,5) 0.719180 (1,13,4) -0.101738 (1,13,6) 3.220971E-02 (1,14,5) -0.152183
(1,13,6): (1,12,6) 0.826605 (1,13,5) -3.220971E-02 (1,13,7) -3.220603E-02 (1,14,6) -0.178583
(1,13,7): (1,12,7) 0.719189 (1,13,6) 3.220603E-02 (1,13,8) -0.101714 (1,14,7) -0.152186
(1,13,8): (1,12,8) 0.290893 (1,13,7) 0.101714 (1,13,9) -5.714874E-02 (1,14,8) -6.721152E-02
(1,13,9): (1,12,9) 8.022334E-02 (1,13,8) 5.714874E-02 (1,13,10) -1.814973E-02 (1,14,9) -2.020086E-02
(1,13,10): (1,12,10) 2.001605E-02 (1,13,9) 1.814973E-02 (1,14,10) -5.486835E-03
(1,14,1): (1,13,1) 1.019576E-03 (1,14,2) 9.157317E-04 (1,15,1) -2.248565E-04
(1,14,2): (1,13,2) 4.631570E-03 (1,14,1) -9.157317E-04 (1,14,3) 3.631131E-03 (1,15,2) -9.599798E-04
(1,14,3): (1,13,3) 2.005977E-02 (1,14,2) -3.631131E-03 (1,14,4) 1.017804E-02 (1,15,3) -3.914917E-03
(1,14,4): (1,13,4) 6.719079E-02 (1,14,3) -1.017804E-02 (1,14,5) 1.678839E-02 (1,15,4) -1.231653E-02
(1,14,5): (1,13,5) 0.152183 (1,14,4) -1.678839E-02 (1,14,6) 5.847757E-03 (1,15,5) -2.635207E-02
(1,14,6): (1,13,6) 0.178583 (1,14,5) -5.847757E-03 (1,14,7) -5.846847E-03 (1,15,6) -3.118084E-02
(1,14,7): (1,13,7) 0.152186 (1,14,6) 5.846847E-03 (1,14,8) -1.678278E-02 (1,15,7) -2.635276E-02
(1,14,8): (1,13,8) 6.721152E-02 (1,14,7) 1.678278E-02 (1,14,9) -1.014280E-02 (1,15,8) -1.232152E-02
(1,14,9): (1,13,9) 2.020086E-02 (1,14,8) 1.014280E-02 (1,14,10) -3.436007E-03 (1,15,9) -3.947349E-03
(1,14,10): (1,13,10) 5.486835E-03 (1,14,9) 3.436007E-03 (1,15,10) -1.146693E-03
(1,15,1): (1,14,1) 2.248565E-04 (1,15,2) 1.806088E-04
(1,15,2): (1,14,2) 9.599798E-04 (1,15,1) -1.806088E-04 (1,15,3) 6.762017E-04
(1,15,3): (1,14,3) 3.914917E-03 (1,15,2) -6.762017E-04 (1,15,4) 1.776604E-03
(1,15,4): (1,14,4) 1.231653E-02 (1,15,3) -1.776604E-03 (1,15,5) 2.754193E-03
(1,15,5): (1,14,5) 2.635207E-02 (1,15,4) -2.754193E-03 (1,15,6) 1.020210E-03
(1,15,6): (1,14,6) 3.118084E-02 (1,15,5) -1.020210E-03 (1,15,7) -1.019987E-03
(1,15,7): (1,14,7) 2.635276E-02 (1,15,6) 1.019987E-03 (1,15,8) -2.752887E-03
(1,15,8): (1,14,8) 1.232152E-02 (1,15,7) 2.752887E-03 (1,15,9) -1.768810E-03
(1,15,9): (1,14,9) 3.947349E-03 (1,15,8) 1.768810E-03 (1,15,10) -6.353660E-04
(1,15,10): (1,14,10) 1.146693E-03 (1,15,9) 6.353660E-04

 WEL PACKAGE (WEL-1) FLOW RATES   PERIOD      2   STEP       19
 ----------------------------------------------------------------------------------------
   NUMBER   CELLID                    RATE       NAME                                    
 ----------------------------------------------------------------------------------------
     1      (1,8,6)              -270.00000      WEL                                     
 ----------------------------------------------------------------------------------------




 DRN PACKAGE (DRN-0) FLOW RATES   PERIOD      2   STEP       19
 ----------------------------------------------------------------------------------------
   NUMBER   CELLID                    RATE       NAME                                    
 ----------------------------------------------------------------------------------------
     1      (1,1,1)               0.0000000      SURF                                    
     2      (1,1,2)               0.0000000      SURF                                    
     3      (1,1,3)               0.0000000      SURF                                    
     4      (1,1,4)               0.0000000      SURF                                    
     5      (1,1,5)               0.0000000      SURF                                    
     6      (1,1,6)               0.0000000      SURF                                    
     7      (1,1,7)               0.0000000      SURF                                    
     8      (1,1,8)               0.0000000      SURF                                    
     9      (1,1,9)               0.0000000      SURF                                    
     10     (1,1,10)              0.0000000      SURF                                    
     11     (1,2,1)               0.0000000      SURF                                    
     12     (1,2,2)               0.0000000      SURF                                    
     13     (1,2,3)               0.0000000      SURF                                    
     14     (1,2,4)               0.0000000      SURF                                    
     15     (1,2,5)               0.0000000      SURF                                    
     16     (1,2,6)               0.0000000      SURF                                    
     17     (1,2,7)               0.0000000      SURF                                    
     18     (1,2,8)               0.0000000      SURF                                    
     19     (1,2,9)               0.0000000      SURF                                    
     20     (1,2,10)              0.0000000      SURF                                    
     21     (1,3,1)               0.0000000      SURF                                    
     22     (1,3,2)               0.0000000      SURF                                    
     23     (1,3,3)               0.0000000      SURF                                    
     24     (1,3,4)               0.0000000      SURF                                    
     25     (1,3,5)               0.0000000      SURF                                    
     26     (1,3,6)               0.0000000      SURF                                    
     27     (1,3,7)               0.0000000      SURF                                    
     28     (1,3,8)               0.0000000      SURF                                    
     29     (1,3,9)               0.0000000      SURF                                    
     30     (1,3,10)              0.0000000      SURF                                    
     31     (1,4,1)               0.0000000      SURF                                    
     32     (1,4,2)               0.0000000      SURF                                    
     33     (1,4,3)               0.0000000      SURF                                    
     34     (1,4,4)               0.0000000      SURF                                    
     35     (1,4,5)               0.0000000      SURF                                    
     36     (1,4,6)               0.0000000      SURF                                    
     37     (1,4,7)               0.0000000      SURF                                    
     38     (1,4,8)               0.0000000      SURF                                    
     39     (1,4,9)               0.0000000      SURF                                    
     40     (1,4,10)              0.0000000      SURF                                    
     41     (1,5,1)               0.0000000      SURF                                    
     42     (1,5,2)               0.0000000      SURF                                    
     43     (1,5,3)               0.0000000      SURF                                    
     44     (1,5,4)               0.0000000      SURF                                    
     45     (1,5,5)               0.0000000      SURF                                    
     46     (1,5,6)               0.0000000      SURF                                    
     47     (1,5,7)               0.0000000      SURF                                    
     48     (1,5,8)               0.0000000      SURF                                    
     49     (1,5,9)               0.0000000      SURF                                    
     50     (1,5,10)              0.0000000      SURF                                    
     51     (1,6,1)               0.0000000      SURF                                    
     52     (1,6,2)               0.0000000      SURF                                    
     53     (1,6,3)               0.0000000      SURF                                    
     54     (1,6,4)               0.0000000      SURF                                    
     55     (1,6,5)               0.0000000      SURF                                    
     56     (1,6,6)               0.0000000      SURF                                    
     57     (1,6,7)              -6.83940016E-09 SURF                                    
     58     (1,6,8)               0.0000000      SURF                                    
     59     (1,6,9)               0.0000000      SURF                                    
     60     (1,6,10)              0.0000000      SURF                                    
     61     (1,7,1)               0.0000000      SURF                                    
     62     (1,7,2)               0.0000000      SURF                                    
     63     (1,7,3)               0.0000000      SURF                                    
     64     (1,7,4)               0.0000000      SURF                                    
     65     (1,7,5)               0.0000000      SURF                                    
     66     (1,7,6)               0.0000000      SURF                                    
     67     (1,7,7)               0.0000000      SURF                                    
     68     (1,7,8)               0.0000000      SURF                                    
     69     (1,7,9)               0.0000000      SURF                                    
     70     (1,7,10)              0.0000000      SURF                                    
     71     (1,8,1)               0.0000000      SURF                                    
     72     (1,8,2)               0.0000000      SURF                                    
     73     (1,8,3)               0.0000000      SURF                                    
     74     (1,8,4)               0.0000000      SURF                                    
     75     (1,8,5)               0.0000000      SURF                                    
     76     (1,8,6)               0.0000000      SURF                                    
     77     (1,8,7)               0.0000000      SURF                                    
     78     (1,8,8)               0.0000000      SURF                                    
     79     (1,8,9)               0.0000000      SURF                                    
     80     (1,8,10)              0.0000000      SURF                                    
     81     (1,9,1)               0.0000000      SURF                                    
     82     (1,9,2)               0.0000000      SURF                                    
     83     (1,9,3)               0.0000000      SURF                                    
     84     (1,9,4)               0.0000000      SURF                                    
     85     (1,9,5)               0.0000000      SURF                                    
     86     (1,9,6)               0.0000000      SURF                                    
     87     (1,9,7)               0.0000000      SURF                                    
     88     (1,9,8)               0.0000000      SURF                                    
     89     (1,9,9)               0.0000000      SURF                                    
     90     (1,9,10)              0.0000000      SURF                                    
     91     (1,10,1)              0.0000000      SURF                                    
     92     (1,10,2)              0.0000000      SURF                                    
     93     (1,10,3)              0.0000000      SURF                                    
     94     (1,10,4)              0.0000000      SURF                                    
     95     (1,10,5)              0.0000000      SURF                                    
     96     (1,10,6)              0.0000000      SURF                                    
     97     (1,10,7)             -1.87865226E-07 SURF                                    
     98     (1,10,8)              0.0000000      SURF                                    
     99     (1,10,9)              0.0000000      SURF                                    
    100     (1,10,10)             0.0000000      SURF                                    
    101     (1,11,1)              0.0000000      SURF                                    
    102     (1,11,2)              0.0000000      SURF                                    
    103     (1,11,3)              0.0000000      SURF                                    
    104     (1,11,4)              0.0000000      SURF                                    
    105     (1,11,5)              0.0000000      SURF                                    
    106     (1,11,6)              0.0000000      SURF                                    
    107     (1,11,7)              0.0000000      SURF                                    
    108     (1,11,8)              0.0000000      SURF                                    
    109     (1,11,9)              0.0000000      SURF                                    
    110     (1,11,10)             0.0000000      SURF                                    
    111     (1,12,1)              0.0000000      SURF                                    
    112     (1,12,2)              0.0000000      SURF                                    
    113     (1,12,3)              0.0000000      SURF                                    
    114     (1,12,4)              0.0000000      SURF                                    
    115     (1,12,5)              0.0000000      SURF                                    
    116     (1,12,6)              0.0000000      SURF                                    
    117     (1,12,7)              0.0000000      SURF                                    
    118     (1,12,8)              0.0000000      SURF                                    
    119     (1,12,9)              0.0000000      SURF                                    
    120     (1,12,10)             0.0000000      SURF                                    
    121     (1,13,1)              0.0000000      SURF                                    
    122     (1,13,2)              0.0000000      SURF                                    
    123     (1,13,3)              0.0000000      SURF                                    
    124     (1,13,4)              0.0000000      SURF                                    
    125     (1,13,5)              0.0000000      SURF                                    
    126     (1,13,6)              0.0000000      SURF                                    
    127     (1,13,7)              0.0000000      SURF                                    
    128     (1,13,8)              0.0000000      SURF                                    
    129     (1,13,9)              0.0000000      SURF                                    
    130     (1,13,10)             0.0000000      SURF                                    
    131     (1,14,1)              0.0000000      SURF                                    
    132     (1,14,2)              0.0000000      SURF                                    
    133     (1,14,3)              0.0000000      SURF                                    
    134     (1,14,4)              0.0000000      SURF                                    
    135     (1,14,5)              0.0000000      SURF                                    
    136     (1,14,6)              0.0000000      SURF                                    
    137     (1,14,7)              0.0000000      SURF                                    
    138     (1,14,8)              0.0000000      SURF                                    
    139     (1,14,9)              0.0000000      SURF                                    
    140     (1,14,10)             0.0000000      SURF                                    
    141     (1,15,1)              0.0000000      SURF                                    
    142     (1,15,2)              0.0000000      SURF                                    
    143     (1,15,3)              0.0000000      SURF                                    
    144     (1,15,4)              0.0000000      SURF                                    
    145     (1,15,5)              0.0000000      SURF                                    
    146     (1,15,6)              0.0000000      SURF                                    
    147     (1,15,7)              0.0000000      SURF                                    
    148     (1,15,8)              0.0000000      SURF                                    
    149     (1,15,9)              0.0000000      SURF                                    
    150     (1,15,10)             0.0000000      SURF                                    
 ----------------------------------------------------------------------------------------




 API PACKAGE (MAR) FLOW RATES   PERIOD      2   STEP       19
 -----------------------------------------------
   NUMBER   CELLID                    RATE      
 -----------------------------------------------
     1      (1,6,5)               29.894539     
     2      (1,6,6)               29.894539     
     3      (1,6,7)               29.894539     
     4      (1,10,5)              30.827985     
     5      (1,10,6)              30.827985     
     6      (1,10,7)              30.827985     
 -----------------------------------------------



1
  HEAD IN LAYER   1 AT END OF TIME STEP  19 IN STRESS PERIOD    2
  ---------------------------------------------------------------------------

            1           2           3           4           5           6           7           8           9          10
 ........................................................................................................................
   1   1.9404E-05  6.7082E-05  2.2672E-04  5.9998E-04  1.1265E-03  1.3392E-03  1.1266E-03  6.0057E-04  2.2995E-04  8.2545E-05
   2   7.9339E-05  2.8902E-04  1.0256E-03  2.8451E-03  5.5485E-03  6.5894E-03  5.5489E-03  2.8474E-03  1.0384E-03  3.5293E-04
   3   3.2076E-04  1.2302E-03  4.5887E-03  1.3404E-02  2.7362E-02  3.2311E-02  2.7363E-02  1.3412E-02  4.6387E-03  1.4911E-03
   4   1.0461E-03  4.2426E-03  1.6764E-02  5.2258E-02  0.1141      0.1324      0.1141      5.2284E-02  1.6922E-02  5.1016E-03
   5   2.4851E-03  1.0712E-02  4.5377E-02  0.1550      0.3825      0.4233      0.3826      0.1550      4.5737E-02  1.2771E-02
   6   3.4385E-03  1.5659E-02  7.2007E-02  0.2869       1.000      0.9591       1.000      0.2870      7.2490E-02  1.8525E-02
   7   7.8065E-04  1.9059E-03 -5.0887E-04 -4.8970E-02 -0.3464      -1.460     -0.3464     -4.8945E-02 -3.6949E-04  2.5184E-03
   8  -1.5679E-03 -1.0065E-02 -6.4296E-02 -0.3615      -1.794      -8.598      -1.794     -0.3615     -6.4468E-02 -1.1438E-02
   9  -2.5755E-04 -1.6346E-03 -1.1359E-02 -7.1321E-02 -0.3714      -1.488     -0.3714     -7.1325E-02 -1.1389E-02 -1.8559E-03
  10   1.7873E-03  1.0151E-02  5.6286E-02  0.2619       1.000      0.9598       1.000      0.2620      5.6499E-02  1.1695E-02
  11   1.2582E-03  6.5079E-03  3.2302E-02  0.1270      0.3471      0.3818      0.3471      0.1270      3.2461E-02  7.5823E-03
  12   4.7860E-04  2.2891E-03  1.0457E-02  3.7190E-02  8.9649E-02  0.1034      8.9650E-02  3.7199E-02  1.0521E-02  2.6936E-03
  13   1.3057E-04  5.8331E-04  2.4888E-03  8.2145E-03  1.8370E-02  2.1584E-02  1.8370E-02  8.2172E-03  2.5070E-03  6.9252E-04
  14   2.8612E-05  1.2018E-04  4.8328E-04  1.5009E-03  3.1792E-03  3.7638E-03  3.1793E-03  1.5016E-03  4.8745E-04  1.4387E-04
  15   6.1261E-06  2.4187E-05  9.1806E-05  2.6946E-04  5.4487E-04  6.4688E-04  5.4489E-04  2.6961E-04  9.2739E-05  2.9203E-05

 HEAD WILL BE SAVED ON UNIT 1100 AT END OF TIME STEP   19, STRESS PERIOD    2


  VOLUME BUDGET FOR ENTIRE MODEL AT END OF TIME STEP   19, STRESS PERIOD   2
  ---------------------------------------------------------------------------------------------------

     CUMULATIVE VOLUME      L**3       RATES FOR THIS TIME STEP      L**3/T          PACKAGE NAME    
     ------------------                 ------------------------                     ----------------

           IN:                                      IN:
           ---                                      ---
              STO-SS =          13.7182                STO-SS =       5.0833E-02     STORAGE                          
              STO-SY =       35965.3153                STO-SY =         142.6957     STORAGE                          
                 WEL =           0.0000                   WEL =           0.0000     WEL-1                            
                 DRN =           0.0000                   DRN =           0.0000     DRN-0                            
                 API =       38903.8994                   API =         182.1676     MAR                              
                 CHD =       2.0279E-08                   CHD =           0.0000     CHD_0                            

            TOTAL IN =       74882.9329              TOTAL IN =         324.9141

          OUT:                                     OUT:
          ----                                     ----
              STO-SS =          12.1557                STO-SS =       2.7880E-02     STORAGE                          
              STO-SY =       23570.7771                STO-SY =          54.8862     STORAGE                          
                 WEL =       51300.0000                   WEL =         270.0000     WEL-1                            
                 DRN =       4.9540E-05                   DRN =       1.9470E-07     DRN-0                            
                 API =           0.0000                   API =           0.0000     MAR                              
                 CHD =       2.0705E-08                   CHD =           0.0000     CHD_0                            

           TOTAL OUT =       74882.9329             TOTAL OUT =         324.9141

            IN - OUT =      -3.4612E-07              IN - OUT =      -3.8816E-09

 PERCENT DISCREPANCY =          -0.00     PERCENT DISCREPANCY =          -0.00




         TIME SUMMARY AT END OF TIME STEP   19 IN STRESS PERIOD    2
                    SECONDS     MINUTES      HOURS       DAYS        YEARS
                    -----------------------------------------------------------
   TIME STEP LENGTH 8.64000E+05  14400.      240.00      10.000     2.73785E-02
 STRESS PERIOD TIME 1.64160E+07 2.73600E+05  4560.0      190.00     0.52019    
         TOTAL TIME 1.65024E+07 2.75040E+05  4584.0      191.00     0.52293    


end timestep


start timestep kper="2" kstp="20" mode="normal"

 UBDSV1 SAVING           STO-SS ON UNIT   1099 AT TIME STEP     20, STRESS PERIOD      2
 UBDSV1 SAVING           STO-SY ON UNIT   1099 AT TIME STEP     20, STRESS PERIOD      2
 UBDSV1 SAVING     FLOW-JA-FACE ON UNIT   1099 AT TIME STEP     20, STRESS PERIOD      2
 UBDSV06 SAVING       DATA-SPDIS IN MODEL GWF              PACKAGE NPF             CONNECTED TO MODEL GWF              PACKAGE NPF              ON UNIT   1099 AT TIME STEP     20, STRESS PERIOD      2
 UBDSV06 SAVING              WEL IN MODEL GWF              PACKAGE GWF             CONNECTED TO MODEL GWF              PACKAGE WEL-1            ON UNIT   1099 AT TIME STEP     20, STRESS PERIOD      2
 UBDSV06 SAVING              DRN IN MODEL GWF              PACKAGE GWF             CONNECTED TO MODEL GWF              PACKAGE DRN-0            ON UNIT   1099 AT TIME STEP     20, STRESS PERIOD      2
 UBDSV06 SAVING              API IN MODEL GWF              PACKAGE GWF             CONNECTED TO MODEL GWF              PACKAGE MAR              ON UNIT   1099 AT TIME STEP     20, STRESS PERIOD      2
 UBDSV06 SAVING              CHD IN MODEL GWF              PACKAGE GWF             CONNECTED TO MODEL GWF              PACKAGE CHD_0            ON UNIT   1099 AT TIME STEP     20, STRESS PERIOD      2

    CALCULATED INTERCELL FLOW FOR PERIOD 2 STEP 20
(1,1,1): (1,1,2) 6.139468E-04 (1,2,1) 7.709268E-04
(1,1,2): (1,1,1) -6.139468E-04 (1,1,3) 1.994755E-03 (1,2,2) 2.748563E-03
(1,1,3): (1,1,2) -1.994755E-03 (1,1,4) 4.519518E-03 (1,2,3) 9.575145E-03
(1,1,4): (1,1,3) -4.519518E-03 (1,1,5) 6.211024E-03 (1,2,4) 2.614825E-02
(1,1,5): (1,1,4) -6.211024E-03 (1,1,6) 2.523874E-03 (1,2,5) 5.043238E-02
(1,1,6): (1,1,5) -2.523874E-03 (1,1,7) -2.522439E-03 (1,2,6) 5.973498E-02
(1,1,7): (1,1,6) 2.522439E-03 (1,1,8) -6.203901E-03 (1,2,7) 5.043602E-02
(1,1,8): (1,1,7) 6.203901E-03 (1,1,9) -4.483097E-03 (1,2,8) 2.617100E-02
(1,1,9): (1,1,8) 4.483097E-03 (1,1,10) -1.831676E-03 (1,2,9) 9.701295E-03
(1,1,10): (1,1,9) 1.831676E-03 (1,2,10) 3.366781E-03
(1,2,1): (1,1,1) -7.709268E-04 (1,2,2) 2.591580E-03 (1,3,1) 2.997311E-03
(1,2,2): (1,1,2) -2.748563E-03 (1,2,1) -2.591580E-03 (1,2,3) 8.821285E-03 (1,3,2) 1.123492E-02
(1,2,3): (1,1,3) -9.575145E-03 (1,2,2) -8.821285E-03 (1,2,4) 2.109178E-02 (1,3,3) 4.113056E-02
(1,2,4): (1,1,4) -2.614825E-02 (1,2,3) -2.109178E-02 (1,2,5) 3.049032E-02 (1,3,4) 0.118383
(1,2,5): (1,1,5) -5.043238E-02 (1,2,4) -3.049032E-02 (1,2,6) 1.182203E-02 (1,3,5) 0.239514
(1,2,6): (1,1,6) -5.973498E-02 (1,2,5) -1.182203E-02 (1,2,7) -1.181695E-02 (1,3,6) 0.281885
(1,2,7): (1,1,7) -5.043602E-02 (1,2,6) 1.181695E-02 (1,2,8) -3.046409E-02 (1,3,7) 0.239527
(1,2,8): (1,1,8) -2.617100E-02 (1,2,7) 3.046409E-02 (1,2,9) -2.095194E-02 (1,3,8) 0.118466
(1,2,9): (1,1,9) -9.701295E-03 (1,2,8) 2.095194E-02 (1,2,10) -8.166094E-03 (1,3,9) 4.160639E-02
(1,2,10): (1,1,10) -3.366781E-03 (1,2,9) 8.166094E-03 (1,3,10) 1.366212E-02
(1,3,1): (1,2,1) -2.997311E-03 (1,3,2) 1.082915E-02 (1,4,1) 8.651891E-03
(1,3,2): (1,2,2) -1.123492E-02 (1,3,1) -1.082915E-02 (1,3,3) 3.871621E-02 (1,4,2) 3.451787E-02
(1,3,3): (1,2,3) -4.113056E-02 (1,3,2) -3.871621E-02 (1,3,4) 9.832860E-02 (1,4,3) 0.134944
(1,3,4): (1,2,4) -0.118383 (1,3,3) -9.832860E-02 (1,3,5) 0.151516 (1,4,4) 0.419285
(1,3,5): (1,2,5) -0.239514 (1,3,4) -0.151516 (1,3,6) 5.409754E-02 (1,4,5) 0.920749
(1,3,6): (1,2,6) -0.281885 (1,3,5) -5.409754E-02 (1,3,7) -5.407947E-02 (1,4,6) 1.06207
(1,3,7): (1,2,7) -0.239527 (1,3,6) 5.407947E-02 (1,3,8) -0.151419 (1,4,7) 0.920784
(1,3,8): (1,2,8) -0.118466 (1,3,7) 0.151419 (1,3,9) -9.779550E-02 (1,4,8) 0.419508
(1,3,9): (1,2,9) -4.160639E-02 (1,3,8) 9.779550E-02 (1,3,10) -3.610883E-02 (1,4,9) 0.136269
(1,3,10): (1,2,10) -1.366212E-02 (1,3,9) 3.610883E-02 (1,4,10) 4.160371E-02
(1,4,1): (1,3,1) -8.651891E-03 (1,4,2) 3.669569E-02 (1,5,1) 1.639931E-02
(1,4,2): (1,3,2) -3.451787E-02 (1,4,1) -3.669569E-02 (1,4,3) 0.139146 (1,5,2) 7.081539E-02
(1,4,3): (1,3,3) -0.134944 (1,4,2) -0.139146 (1,4,4) 0.382566 (1,5,3) 0.303794
(1,4,4): (1,3,4) -0.419285 (1,4,3) -0.382566 (1,4,5) 0.651670 (1,5,4) 1.07199
(1,4,5): (1,3,5) -0.920749 (1,4,4) -0.651670 (1,4,6) 0.194243 (1,5,5) 2.81437
(1,4,6): (1,3,6) -1.06207 (1,4,5) -0.194243 (1,4,7) -0.194191 (1,5,6) 3.04558
(1,4,7): (1,3,7) -0.920784 (1,4,6) 0.194191 (1,4,8) -0.651384 (1,5,7) 2.81444
(1,4,8): (1,3,8) -0.419508 (1,4,7) 0.651384 (1,4,9) -0.380927 (1,5,8) 1.07238
(1,4,9): (1,3,9) -0.136269 (1,4,8) 0.380927 (1,4,10) -0.130769 (1,5,9) 0.306198
(1,4,10): (1,3,10) -4.160371E-02 (1,4,9) 0.130769 (1,5,10) 8.441517E-02
(1,5,1): (1,4,1) -1.639931E-02 (1,5,2) 9.112280E-02 (1,6,1) 9.823144E-03
(1,5,2): (1,4,2) -7.081539E-02 (1,5,1) -9.112280E-02 (1,5,3) 0.372283 (1,6,2) 4.921521E-02
(1,5,3): (1,4,3) -0.303794 (1,5,2) -0.372283 (1,5,4) 1.15135 (1,6,3) 0.260860
(1,5,4): (1,4,4) -1.07199 (1,5,3) -1.15135 (1,5,5) 2.38726 (1,6,4) 1.31629
(1,5,5): (1,4,5) -2.81437 (1,5,4) -2.38726 (1,5,6) 0.420134 (1,6,5) 6.68705
(1,5,6): (1,4,6) -3.04558 (1,5,5) -0.420134 (1,5,7) -0.420018 (1,6,6) 5.68690
(1,5,7): (1,4,7) -2.81444 (1,5,6) 0.420018 (1,5,8) -2.38664 (1,6,7) 6.68710
(1,5,8): (1,4,8) -1.07238 (1,5,7) 2.38664 (1,5,9) -1.14767 (1,6,8) 1.31650
(1,5,9): (1,4,9) -0.306198 (1,5,8) 1.14767 (1,5,10) -0.352653 (1,6,9) 0.262186
(1,5,10): (1,4,10) -8.441517E-02 (1,5,9) 0.352653 (1,6,10) 5.750438E-02
(1,6,1): (1,5,1) -9.823144E-03 (1,6,2) 0.130547 (1,7,1) -3.046840E-02
(1,6,2): (1,5,2) -4.921521E-02 (1,6,1) -0.130547 (1,6,3) 0.584602 (1,7,2) -0.152046
(1,6,3): (1,5,3) -0.260860 (1,6,2) -0.584602 (1,6,4) 2.21570 (1,7,3) -0.781838
(1,6,4): (1,5,4) -1.31629 (1,6,3) -2.21570 (1,6,5) 7.80689 (1,7,4) -3.60602
(1,6,5): (1,5,5) -6.68705 (1,6,4) -7.80689 (1,6,6) -0.532039 (1,7,5) -15.1870
(1,6,6): (1,5,6) -5.68690 (1,6,5) 0.532039 (1,6,7) 0.532206 (1,7,6) -27.0898
(1,6,7): (1,5,7) -6.68710 (1,6,6) -0.532206 (1,6,8) -7.80607 (1,7,7) -15.1871
(1,6,8): (1,5,8) -1.31650 (1,6,7) 7.80607 (1,6,9) -2.21083 (1,7,8) -3.60666
(1,6,9): (1,5,9) -0.262186 (1,6,8) 2.21083 (1,6,10) -0.557931 (1,7,9) -0.785963
(1,6,10): (1,5,10) -5.750438E-02 (1,6,9) 0.557931 (1,7,10) -0.177806
(1,7,1): (1,6,1) 3.046840E-02 (1,7,2) 8.995412E-03 (1,8,1) -2.679843E-02
(1,7,2): (1,6,2) 0.152046 (1,7,1) -8.995412E-03 (1,7,3) -4.398831E-02 (1,8,2) -0.131599
(1,7,3): (1,6,3) 0.781838 (1,7,2) 4.398831E-02 (1,7,4) -0.574927 (1,8,3) -0.680287
(1,7,4): (1,6,4) 3.60602 (1,7,3) 0.574927 (1,7,5) -3.18565 (1,8,4) -3.23488
(1,7,5): (1,6,5) 15.1870 (1,7,4) 3.18565 (1,7,6) -10.9787 (1,8,5) -14.2568
(1,7,6): (1,6,6) 27.0898 (1,7,5) 10.9787 (1,7,7) 10.9788 (1,8,6) -61.4730
(1,7,7): (1,6,7) 15.1871 (1,7,6) -10.9788 (1,7,8) 3.18591 (1,8,7) -14.2569
(1,7,8): (1,6,8) 3.60666 (1,7,7) -3.18591 (1,7,9) 0.576219 (1,8,8) -3.23544
(1,7,9): (1,6,9) 0.785963 (1,7,8) -0.576219 (1,7,10) 4.888639E-02 (1,8,9) -0.683951
(1,7,10): (1,6,10) 0.177806 (1,7,9) -4.888639E-02 (1,8,10) -0.154126
(1,8,1): (1,7,1) 2.679843E-02 (1,8,2) -9.576892E-02 (1,9,1) 1.538971E-02
(1,8,2): (1,7,2) 0.131599 (1,8,1) 9.576892E-02 (1,8,3) -0.592195 (1,9,2) 9.476335E-02
(1,8,3): (1,7,3) 0.680287 (1,8,2) 0.592195 (1,8,4) -3.12681 (1,9,3) 0.572627
(1,8,4): (1,7,4) 3.23488 (1,8,3) 3.12681 (1,8,5) -14.2018 (1,9,4) 3.02005
(1,8,5): (1,7,5) 14.2568 (1,8,4) 14.2018 (1,8,6) -56.2290 (1,9,5) 14.0073
(1,8,6): (1,7,6) 61.4730 (1,8,5) 56.2290 (1,8,7) 56.2290 (1,9,6) 61.0869
(1,8,7): (1,7,7) 14.2569 (1,8,6) -56.2290 (1,8,8) 14.2016 (1,9,7) 14.0074
(1,8,8): (1,7,8) 3.23544 (1,8,7) -14.2016 (1,8,9) 3.12494 (1,9,8) 3.02025
(1,8,9): (1,7,9) 0.683951 (1,8,8) -3.12494 (1,8,10) 0.578154 (1,9,9) 0.574342
(1,8,10): (1,7,10) 0.154126 (1,8,9) -0.578154 (1,9,10) 0.108216
(1,9,1): (1,8,1) -1.538971E-02 (1,9,2) -1.639448E-02 (1,10,1) 2.396051E-02
(1,9,2): (1,8,2) -9.476335E-02 (1,9,1) 1.639448E-02 (1,9,3) -0.114238 (1,10,2) 0.132276
(1,9,3): (1,8,3) -0.572627 (1,9,2) 0.114238 (1,9,4) -0.676804 (1,10,3) 0.734300
(1,9,4): (1,8,4) -3.02005 (1,9,3) 0.676804 (1,9,5) -3.19426 (1,10,4) 3.57403
(1,9,5): (1,8,5) -14.0073 (1,9,4) 3.19426 (1,9,6) -10.9728 (1,10,5) 15.4348
(1,9,6): (1,8,6) -61.0869 (1,9,5) 10.9728 (1,9,7) 10.9728 (1,10,6) 27.3755
(1,9,7): (1,8,7) -14.0074 (1,9,6) -10.9728 (1,9,8) 3.19421 (1,10,7) 15.4349
(1,9,8): (1,8,8) -3.02025 (1,9,7) -3.19421 (1,9,9) 0.676506 (1,10,8) 3.57444
(1,9,9): (1,8,9) -0.574342 (1,9,8) -0.676506 (1,9,10) 0.112010 (1,10,9) 0.737279
(1,9,10): (1,8,10) -0.108216 (1,9,9) -0.112010 (1,10,10) 0.152870
(1,10,1): (1,9,1) -2.396051E-02 (1,10,2) 9.187990E-02 (1,11,1) -5.576399E-03
(1,10,2): (1,9,2) -0.132276 (1,10,1) -9.187990E-02 (1,10,3) 0.486444 (1,11,2) -3.706702E-02
(1,10,3): (1,9,3) -0.734300 (1,10,2) -0.486444 (1,10,4) 2.12879 (1,11,3) -0.238482
(1,10,4): (1,9,4) -3.57403 (1,10,3) -2.12879 (1,10,5) 8.06319 (1,11,4) -1.34974
(1,10,5): (1,9,5) -15.4348 (1,10,4) -8.06319 (1,10,6) -0.518697 (1,11,5) -7.05018
(1,10,6): (1,9,6) -27.3755 (1,10,5) 0.518697 (1,10,7) 0.518768 (1,11,6) -6.11979
(1,10,7): (1,9,7) -15.4349 (1,10,6) -0.518768 (1,10,8) -8.06288 (1,11,7) -7.05020
(1,10,8): (1,9,8) -3.57444 (1,10,7) 8.06288 (1,10,9) -2.12648 (1,11,8) -1.34981
(1,10,9): (1,9,9) -0.737279 (1,10,8) 2.12648 (1,10,10) -0.470988 (1,11,9) -0.239066
(1,10,10): (1,9,10) -0.152870 (1,10,9) 0.470988 (1,11,10) -4.200114E-02
(1,11,1): (1,10,1) 5.576399E-03 (1,11,2) 6.037206E-02 (1,12,1) -9.295488E-03
(1,11,2): (1,10,2) 3.706702E-02 (1,11,1) -6.037206E-02 (1,11,3) 0.284536 (1,12,2) -4.789398E-02
(1,11,3): (1,10,3) 0.238482 (1,11,2) -0.284536 (1,11,4) 1.00936 (1,12,3) -0.238140
(1,11,4): (1,10,4) 1.34974 (1,11,3) -1.00936 (1,11,5) 2.31584 (1,12,4) -0.951181
(1,11,5): (1,10,5) 7.05018 (1,11,4) -2.31584 (1,11,6) 0.364115 (1,12,5) -2.71176
(1,11,6): (1,10,6) 6.11979 (1,11,5) -0.364115 (1,11,7) -0.364073 (1,12,6) -2.93087
(1,11,7): (1,10,7) 7.05020 (1,11,6) 0.364073 (1,11,8) -2.31559 (1,12,7) -2.71178
(1,11,8): (1,10,8) 1.34981 (1,11,7) 2.31559 (1,11,9) -1.00759 (1,12,8) -0.951345
(1,11,9): (1,10,9) 0.239066 (1,11,8) 1.00759 (1,11,10) -0.273472 (1,12,9) -0.239330
(1,11,10): (1,10,10) 4.200114E-02 (1,11,9) 0.273472 (1,12,10) -5.583547E-02
(1,12,1): (1,11,1) 9.295488E-03 (1,12,2) 2.176876E-02 (1,13,1) -4.378337E-03
(1,12,2): (1,11,2) 4.789398E-02 (1,12,1) -2.176876E-02 (1,12,3) 9.420261E-02 (1,13,2) -2.045880E-02
(1,12,3): (1,11,3) 0.238140 (1,12,2) -9.420261E-02 (1,12,4) 0.295912 (1,13,3) -9.166144E-02
(1,12,4): (1,11,4) 0.951181 (1,12,3) -0.295912 (1,12,5) 0.561681 (1,13,4) -0.321339
(1,12,5): (1,11,5) 2.71176 (1,12,4) -0.561681 (1,12,6) 0.149987 (1,13,5) -0.770570
(1,12,6): (1,11,6) 2.93087 (1,12,5) -0.149987 (1,12,7) -0.149970 (1,13,6) -0.884743
(1,12,7): (1,11,7) 2.71178 (1,12,6) 0.149970 (1,12,8) -0.561572 (1,13,7) -0.770582
(1,12,8): (1,11,8) 0.951345 (1,12,7) 0.561572 (1,12,9) -0.295187 (1,13,8) -0.321426
(1,12,9): (1,11,9) 0.239330 (1,12,8) 0.295187 (1,12,10) -8.991505E-02 (1,13,9) -9.225848E-02
(1,12,10): (1,11,10) 5.583547E-02 (1,12,9) 8.991505E-02 (1,13,10) -2.414663E-02
(1,13,1): (1,12,1) 4.378337E-03 (1,13,2) 5.688088E-03 (1,14,1) -1.343739E-03
(1,13,2): (1,12,2) 2.045880E-02 (1,13,1) -5.688088E-03 (1,13,3) 2.299816E-02 (1,14,2) -5.830411E-03
(1,13,3): (1,12,3) 9.166144E-02 (1,13,2) -2.299816E-02 (1,13,4) 6.629224E-02 (1,14,3) -2.424295E-02
(1,13,4): (1,12,4) 0.321339 (1,13,3) -6.629224E-02 (1,13,5) 0.113366 (1,14,4) -7.819279E-02
(1,13,5): (1,12,5) 0.770570 (1,13,4) -0.113366 (1,13,6) 3.662673E-02 (1,14,5) -0.171949
(1,13,6): (1,12,6) 0.884743 (1,13,5) -3.662673E-02 (1,13,7) -3.662124E-02 (1,14,6) -0.201641
(1,13,7): (1,12,7) 0.770582 (1,13,6) 3.662124E-02 (1,13,8) -0.113332 (1,14,7) -0.171953
(1,13,8): (1,12,8) 0.321426 (1,13,7) 0.113332 (1,13,9) -6.607913E-02 (1,14,8) -7.822220E-02
(1,13,9): (1,12,9) 9.225848E-02 (1,13,8) 6.607913E-02 (1,13,10) -2.180479E-02 (1,14,9) -2.443516E-02
(1,13,10): (1,12,10) 2.414663E-02 (1,13,9) 2.180479E-02 (1,14,10) -6.948891E-03
(1,14,1): (1,13,1) 1.343739E-03 (1,14,2) 1.201422E-03 (1,15,1) -3.087826E-04
(1,14,2): (1,13,2) 5.830411E-03 (1,14,1) -1.201422E-03 (1,14,3) 4.585856E-03 (1,15,2) -1.261960E-03
(1,14,3): (1,13,3) 2.424295E-02 (1,14,2) -4.585856E-03 (1,14,4) 1.234880E-02 (1,15,3) -4.951106E-03
(1,14,4): (1,13,4) 7.819279E-02 (1,14,3) -1.234880E-02 (1,14,5) 1.966406E-02 (1,15,4) -1.503158E-02
(1,14,5): (1,13,5) 0.171949 (1,14,4) -1.966406E-02 (1,14,6) 6.983399E-03 (1,15,5) -3.129333E-02
(1,14,6): (1,13,6) 0.201641 (1,14,5) -6.983399E-03 (1,14,7) -6.981992E-03 (1,15,6) -3.699544E-02
(1,14,7): (1,13,7) 0.171953 (1,14,6) 6.981992E-03 (1,14,8) -1.965576E-02 (1,15,7) -3.129438E-02
(1,14,8): (1,13,8) 7.822220E-02 (1,14,7) 1.965576E-02 (1,14,9) -1.229861E-02 (1,15,8) -1.503892E-02
(1,14,9): (1,13,9) 2.443516E-02 (1,14,8) 1.229861E-02 (1,14,10) -4.318980E-03 (1,15,9) -4.997043E-03
(1,14,10): (1,13,10) 6.948891E-03 (1,14,9) 4.318980E-03 (1,15,10) -1.516362E-03
(1,15,1): (1,14,1) 3.087826E-04 (1,15,2) 2.482457E-04
(1,15,2): (1,14,2) 1.261960E-03 (1,15,1) -2.482457E-04 (1,15,3) 8.967234E-04
(1,15,3): (1,14,3) 4.951106E-03 (1,15,2) -8.967234E-04 (1,15,4) 2.268599E-03
(1,15,4): (1,14,4) 1.503158E-02 (1,15,3) -2.268599E-03 (1,15,5) 3.404201E-03
(1,15,5): (1,14,5) 3.129333E-02 (1,15,4) -3.404201E-03 (1,15,6) 1.283001E-03
(1,15,6): (1,14,6) 3.699544E-02 (1,15,5) -1.283001E-03 (1,15,7) -1.282642E-03
(1,15,7): (1,14,7) 3.129438E-02 (1,15,6) 1.282642E-03 (1,15,8) -3.402185E-03
(1,15,8): (1,14,8) 1.503892E-02 (1,15,7) 3.402185E-03 (1,15,9) -2.257015E-03
(1,15,9): (1,14,9) 4.997043E-03 (1,15,8) 2.257015E-03 (1,15,10) -8.383216E-04
(1,15,10): (1,14,10) 1.516362E-03 (1,15,9) 8.383216E-04

 WEL PACKAGE (WEL-1) FLOW RATES   PERIOD      2   STEP       20
 ----------------------------------------------------------------------------------------
   NUMBER   CELLID                    RATE       NAME                                    
 ----------------------------------------------------------------------------------------
     1      (1,8,6)              -270.00000      WEL                                     
 ----------------------------------------------------------------------------------------




 DRN PACKAGE (DRN-0) FLOW RATES   PERIOD      2   STEP       20
 ----------------------------------------------------------------------------------------
   NUMBER   CELLID                    RATE       NAME                                    
 ----------------------------------------------------------------------------------------
     1      (1,1,1)               0.0000000      SURF                                    
     2      (1,1,2)               0.0000000      SURF                                    
     3      (1,1,3)               0.0000000      SURF                                    
     4      (1,1,4)               0.0000000      SURF                                    
     5      (1,1,5)               0.0000000      SURF                                    
     6      (1,1,6)               0.0000000      SURF                                    
     7      (1,1,7)               0.0000000      SURF                                    
     8      (1,1,8)               0.0000000      SURF                                    
     9      (1,1,9)               0.0000000      SURF                                    
     10     (1,1,10)              0.0000000      SURF                                    
     11     (1,2,1)               0.0000000      SURF                                    
     12     (1,2,2)               0.0000000      SURF                                    
     13     (1,2,3)               0.0000000      SURF                                    
     14     (1,2,4)               0.0000000      SURF                                    
     15     (1,2,5)               0.0000000      SURF                                    
     16     (1,2,6)               0.0000000      SURF                                    
     17     (1,2,7)               0.0000000      SURF                                    
     18     (1,2,8)               0.0000000      SURF                                    
     19     (1,2,9)               0.0000000      SURF                                    
     20     (1,2,10)              0.0000000      SURF                                    
     21     (1,3,1)               0.0000000      SURF                                    
     22     (1,3,2)               0.0000000      SURF                                    
     23     (1,3,3)               0.0000000      SURF                                    
     24     (1,3,4)               0.0000000      SURF                                    
     25     (1,3,5)               0.0000000      SURF                                    
     26     (1,3,6)               0.0000000      SURF                                    
     27     (1,3,7)               0.0000000      SURF                                    
     28     (1,3,8)               0.0000000      SURF                                    
     29     (1,3,9)               0.0000000      SURF                                    
     30     (1,3,10)              0.0000000      SURF                                    
     31     (1,4,1)               0.0000000      SURF                                    
     32     (1,4,2)               0.0000000      SURF                                    
     33     (1,4,3)               0.0000000      SURF                                    
     34     (1,4,4)               0.0000000      SURF                                    
     35     (1,4,5)               0.0000000      SURF                                    
     36     (1,4,6)               0.0000000      SURF                                    
     37     (1,4,7)               0.0000000      SURF                                    
     38     (1,4,8)               0.0000000      SURF                                    
     39     (1,4,9)               0.0000000      SURF                                    
     40     (1,4,10)              0.0000000      SURF                                    
     41     (1,5,1)               0.0000000      SURF                                    
     42     (1,5,2)               0.0000000      SURF                                    
     43     (1,5,3)               0.0000000      SURF                                    
     44     (1,5,4)               0.0000000      SURF                                    
     45     (1,5,5)               0.0000000      SURF                                    
     46     (1,5,6)               0.0000000      SURF                                    
     47     (1,5,7)               0.0000000      SURF                                    
     48     (1,5,8)               0.0000000      SURF                                    
     49     (1,5,9)               0.0000000      SURF                                    
     50     (1,5,10)              0.0000000      SURF                                    
     51     (1,6,1)               0.0000000      SURF                                    
     52     (1,6,2)               0.0000000      SURF                                    
     53     (1,6,3)               0.0000000      SURF                                    
     54     (1,6,4)               0.0000000      SURF                                    
     55     (1,6,5)               0.0000000      SURF                                    
     56     (1,6,6)               0.0000000      SURF                                    
     57     (1,6,7)              -1.14087015E-08 SURF                                    
     58     (1,6,8)               0.0000000      SURF                                    
     59     (1,6,9)               0.0000000      SURF                                    
     60     (1,6,10)              0.0000000      SURF                                    
     61     (1,7,1)               0.0000000      SURF                                    
     62     (1,7,2)               0.0000000      SURF                                    
     63     (1,7,3)               0.0000000      SURF                                    
     64     (1,7,4)               0.0000000      SURF                                    
     65     (1,7,5)               0.0000000      SURF                                    
     66     (1,7,6)               0.0000000      SURF                                    
     67     (1,7,7)               0.0000000      SURF                                    
     68     (1,7,8)               0.0000000      SURF                                    
     69     (1,7,9)               0.0000000      SURF                                    
     70     (1,7,10)              0.0000000      SURF                                    
     71     (1,8,1)               0.0000000      SURF                                    
     72     (1,8,2)               0.0000000      SURF                                    
     73     (1,8,3)               0.0000000      SURF                                    
     74     (1,8,4)               0.0000000      SURF                                    
     75     (1,8,5)               0.0000000      SURF                                    
     76     (1,8,6)               0.0000000      SURF                                    
     77     (1,8,7)               0.0000000      SURF                                    
     78     (1,8,8)               0.0000000      SURF                                    
     79     (1,8,9)               0.0000000      SURF                                    
     80     (1,8,10)              0.0000000      SURF                                    
     81     (1,9,1)               0.0000000      SURF                                    
     82     (1,9,2)               0.0000000      SURF                                    
     83     (1,9,3)               0.0000000      SURF                                    
     84     (1,9,4)               0.0000000      SURF                                    
     85     (1,9,5)               0.0000000      SURF                                    
     86     (1,9,6)               0.0000000      SURF                                    
     87     (1,9,7)               0.0000000      SURF                                    
     88     (1,9,8)               0.0000000      SURF                                    
     89     (1,9,9)               0.0000000      SURF                                    
     90     (1,9,10)              0.0000000      SURF                                    
     91     (1,10,1)              0.0000000      SURF                                    
     92     (1,10,2)              0.0000000      SURF                                    
     93     (1,10,3)              0.0000000      SURF                                    
     94     (1,10,4)              0.0000000      SURF                                    
     95     (1,10,5)              0.0000000      SURF                                    
     96     (1,10,6)              0.0000000      SURF                                    
     97     (1,10,7)             -3.08224116E-07 SURF                                    
     98     (1,10,8)              0.0000000      SURF                                    
     99     (1,10,9)              0.0000000      SURF                                    
    100     (1,10,10)             0.0000000      SURF                                    
    101     (1,11,1)              0.0000000      SURF                                    
    102     (1,11,2)              0.0000000      SURF                                    
    103     (1,11,3)              0.0000000      SURF                                    
    104     (1,11,4)              0.0000000      SURF                                    
    105     (1,11,5)              0.0000000      SURF                                    
    106     (1,11,6)              0.0000000      SURF                                    
    107     (1,11,7)              0.0000000      SURF                                    
    108     (1,11,8)              0.0000000      SURF                                    
    109     (1,11,9)              0.0000000      SURF                                    
    110     (1,11,10)             0.0000000      SURF                                    
    111     (1,12,1)              0.0000000      SURF                                    
    112     (1,12,2)              0.0000000      SURF                                    
    113     (1,12,3)              0.0000000      SURF                                    
    114     (1,12,4)              0.0000000      SURF                                    
    115     (1,12,5)              0.0000000      SURF                                    
    116     (1,12,6)              0.0000000      SURF                                    
    117     (1,12,7)              0.0000000      SURF                                    
    118     (1,12,8)              0.0000000      SURF                                    
    119     (1,12,9)              0.0000000      SURF                                    
    120     (1,12,10)             0.0000000      SURF                                    
    121     (1,13,1)              0.0000000      SURF                                    
    122     (1,13,2)              0.0000000      SURF                                    
    123     (1,13,3)              0.0000000      SURF                                    
    124     (1,13,4)              0.0000000      SURF                                    
    125     (1,13,5)              0.0000000      SURF                                    
    126     (1,13,6)              0.0000000      SURF                                    
    127     (1,13,7)              0.0000000      SURF                                    
    128     (1,13,8)              0.0000000      SURF                                    
    129     (1,13,9)              0.0000000      SURF                                    
    130     (1,13,10)             0.0000000      SURF                                    
    131     (1,14,1)              0.0000000      SURF                                    
    132     (1,14,2)              0.0000000      SURF                                    
    133     (1,14,3)              0.0000000      SURF                                    
    134     (1,14,4)              0.0000000      SURF                                    
    135     (1,14,5)              0.0000000      SURF                                    
    136     (1,14,6)              0.0000000      SURF                                    
    137     (1,14,7)              0.0000000      SURF                                    
    138     (1,14,8)              0.0000000      SURF                                    
    139     (1,14,9)              0.0000000      SURF                                    
    140     (1,14,10)             0.0000000      SURF                                    
    141     (1,15,1)              0.0000000      SURF                                    
    142     (1,15,2)              0.0000000      SURF                                    
    143     (1,15,3)              0.0000000      SURF                                    
    144     (1,15,4)              0.0000000      SURF                                    
    145     (1,15,5)              0.0000000      SURF                                    
    146     (1,15,6)              0.0000000      SURF                                    
    147     (1,15,7)              0.0000000      SURF                                    
    148     (1,15,8)              0.0000000      SURF                                    
    149     (1,15,9)              0.0000000      SURF                                    
    150     (1,15,10)             0.0000000      SURF                                    
 ----------------------------------------------------------------------------------------




 API PACKAGE (MAR) FLOW RATES   PERIOD      2   STEP       20
 -----------------------------------------------
   NUMBER   CELLID                    RATE      
 -----------------------------------------------
     1      (1,6,5)               30.212526     
     2      (1,6,6)               30.212526     
     3      (1,6,7)               30.212526     
     4      (1,10,5)              31.066742     
     5      (1,10,6)              31.066742     
     6      (1,10,7)              31.066742     
 -----------------------------------------------



1
  HEAD IN LAYER   1 AT END OF TIME STEP  20 IN STRESS PERIOD    2
  ---------------------------------------------------------------------------

            1           2           3           4           5           6           7           8           9          10
 ........................................................................................................................
   1   2.6325E-05  8.7719E-05  2.8719E-04  7.3911E-04  1.3601E-03  1.6125E-03  1.3603E-03  7.3996E-04  2.9169E-04  1.0852E-04
   2   1.0342E-04  3.6257E-04  1.2446E-03  3.3531E-03  6.4001E-03  7.5814E-03  6.4006E-03  3.3562E-03  1.2617E-03  4.4519E-04
   3   4.0314E-04  1.4859E-03  5.3554E-03  1.5173E-02  3.0279E-02  3.5670E-02  3.0281E-02  1.5185E-02  5.4201E-03  1.8112E-03
   4   1.2682E-03  4.9360E-03  1.8824E-02  5.6865E-02  0.1213      0.1404      0.1213      5.6898E-02  1.9021E-02  5.9690E-03
   5   2.9077E-03  1.2009E-02  4.9056E-02  0.1624      0.3921      0.4323      0.3921      0.1624      4.9490E-02  1.4398E-02
   6   3.8896E-03  1.6922E-02  7.4947E-02  0.2903       1.000      0.9516       1.000      0.2904      7.5512E-02  2.0137E-02
   7   8.4395E-04  1.7433E-03 -2.6547E-03 -6.0163E-02 -0.3807      -1.522     -0.3806     -6.0131E-02 -2.4950E-03  2.3924E-03
   8  -1.8357E-03 -1.1414E-02 -7.0701E-02 -0.3856      -1.863      -8.773      -1.863     -0.3856     -7.0907E-02 -1.3016E-02
   9  -2.9665E-04 -1.9361E-03 -1.3362E-02 -8.1133E-02 -0.4032      -1.547     -0.4032     -8.1137E-02 -1.3396E-02 -2.1925E-03
  10   2.0989E-03  1.1277E-02  5.9633E-02  0.2670       1.000      0.9528       1.000      0.2670      5.9893E-02  1.3075E-02
  11   1.5414E-03  7.5740E-03  3.5926E-02  0.1355      0.3591      0.3941      0.3591      0.1355      3.6129E-02  8.8799E-03
  12   6.1197E-04  2.7882E-03  1.2197E-02  4.1665E-02  9.7292E-02  0.1121      9.7294E-02  4.1678E-02  1.2282E-02  3.3013E-03
  13   1.7416E-04  7.4293E-04  3.0420E-03  9.6649E-03  2.0978E-02  2.4631E-02  2.0978E-02  9.6688E-03  3.0672E-03  8.8743E-04
  14   3.9788E-05  1.5993E-04  6.1849E-04  1.8531E-03  3.8188E-03  4.5168E-03  3.8189E-03  1.8541E-03  6.2447E-04  1.9260E-04
  15   8.9098E-06  3.3734E-05  1.2341E-04  3.5026E-04  6.9065E-04  8.1894E-04  6.9069E-04  3.5049E-04  1.2480E-04  4.0970E-05

 HEAD WILL BE SAVED ON UNIT 1100 AT END OF TIME STEP   20, STRESS PERIOD    2


  VOLUME BUDGET FOR ENTIRE MODEL AT END OF TIME STEP   20, STRESS PERIOD   2
  ---------------------------------------------------------------------------------------------------

     CUMULATIVE VOLUME      L**3       RATES FOR THIS TIME STEP      L**3/T          PACKAGE NAME    
     ------------------                 ------------------------                     ----------------

           IN:                                      IN:
           ---                                      ---
              STO-SS =          14.2126                STO-SS =       4.9440E-02     STORAGE                          
              STO-SY =       37356.0726                STO-SY =         139.0757     STORAGE                          
                 WEL =           0.0000                   WEL =           0.0000     WEL-1                            
                 DRN =           0.0000                   DRN =           0.0000     DRN-0                            
                 API =       40742.2774                   API =         183.8378     MAR                              
                 CHD =       2.0279E-08                   CHD =           0.0000     CHD_0                            

            TOTAL IN =       78112.5626              TOTAL IN =         322.9630

          OUT:                                     OUT:
          ----                                     ----
              STO-SS =          12.4246                STO-SS =       2.6887E-02     STORAGE                          
              STO-SY =       24100.1380                STO-SY =          52.9361     STORAGE                          
                 WEL =       54000.0000                   WEL =         270.0000     WEL-1                            
                 DRN =       5.2737E-05                   DRN =       3.1963E-07     DRN-0                            
                 API =           0.0000                   API =           0.0000     MAR                              
                 CHD =       2.0705E-08                   CHD =           0.0000     CHD_0                            

           TOTAL OUT =       78112.5626             TOTAL OUT =         322.9630

            IN - OUT =      -3.8208E-07              IN - OUT =      -3.5961E-09

 PERCENT DISCREPANCY =          -0.00     PERCENT DISCREPANCY =          -0.00




         TIME SUMMARY AT END OF TIME STEP   20 IN STRESS PERIOD    2
                    SECONDS     MINUTES      HOURS       DAYS        YEARS
                    -----------------------------------------------------------
   TIME STEP LENGTH 8.64000E+05  14400.      240.00      10.000     2.73785E-02
 STRESS PERIOD TIME 1.72800E+07 2.88000E+05  4800.0      200.00     0.54757    
         TOTAL TIME 1.73664E+07 2.89440E+05  4824.0      201.00     0.55031    


end timestep


start timestep kper="2" kstp="21" mode="normal"

 UBDSV1 SAVING           STO-SS ON UNIT   1099 AT TIME STEP     21, STRESS PERIOD      2
 UBDSV1 SAVING           STO-SY ON UNIT   1099 AT TIME STEP     21, STRESS PERIOD      2
 UBDSV1 SAVING     FLOW-JA-FACE ON UNIT   1099 AT TIME STEP     21, STRESS PERIOD      2
 UBDSV06 SAVING       DATA-SPDIS IN MODEL GWF              PACKAGE NPF             CONNECTED TO MODEL GWF              PACKAGE NPF              ON UNIT   1099 AT TIME STEP     21, STRESS PERIOD      2
 UBDSV06 SAVING              WEL IN MODEL GWF              PACKAGE GWF             CONNECTED TO MODEL GWF              PACKAGE WEL-1            ON UNIT   1099 AT TIME STEP     21, STRESS PERIOD      2
 UBDSV06 SAVING              DRN IN MODEL GWF              PACKAGE GWF             CONNECTED TO MODEL GWF              PACKAGE DRN-0            ON UNIT   1099 AT TIME STEP     21, STRESS PERIOD      2
 UBDSV06 SAVING              API IN MODEL GWF              PACKAGE GWF             CONNECTED TO MODEL GWF              PACKAGE MAR              ON UNIT   1099 AT TIME STEP     21, STRESS PERIOD      2
 UBDSV06 SAVING              CHD IN MODEL GWF              PACKAGE GWF             CONNECTED TO MODEL GWF              PACKAGE CHD_0            ON UNIT   1099 AT TIME STEP     21, STRESS PERIOD      2

    CALCULATED INTERCELL FLOW FOR PERIOD 2 STEP 21
(1,1,1): (1,1,2) 7.778666E-04 (1,2,1) 9.755765E-04
(1,1,2): (1,1,1) -7.778666E-04 (1,1,3) 2.456659E-03 (1,2,2) 3.354621E-03
(1,1,3): (1,1,2) -2.456659E-03 (1,1,4) 5.403035E-03 (1,2,3) 1.132914E-02
(1,1,4): (1,1,3) -5.403035E-03 (1,1,5) 7.245812E-03 (1,2,4) 3.010890E-02
(1,1,5): (1,1,4) -7.245812E-03 (1,1,6) 2.958883E-03 (1,2,5) 5.693810E-02
(1,1,6): (1,1,5) -2.958883E-03 (1,1,7) -2.956802E-03 (1,2,6) 6.726818E-02
(1,1,7): (1,1,6) 2.956802E-03 (1,1,8) -7.235845E-03 (1,2,7) 5.694314E-02
(1,1,8): (1,1,7) 7.235845E-03 (1,1,9) -5.353712E-03 (1,2,8) 3.013938E-02
(1,1,9): (1,1,8) 5.353712E-03 (1,1,10) -2.242984E-03 (1,2,9) 1.149278E-02
(1,1,10): (1,1,9) 2.242984E-03 (1,2,10) 4.130817E-03
(1,2,1): (1,1,1) -9.755765E-04 (1,2,2) 3.156906E-03 (1,3,1) 3.667057E-03
(1,2,2): (1,1,2) -3.354621E-03 (1,2,1) -3.156906E-03 (1,2,3) 1.043111E-02 (1,3,2) 1.324004E-02
(1,2,3): (1,1,3) -1.132914E-02 (1,2,2) -1.043111E-02 (1,2,4) 2.418168E-02 (1,3,3) 4.694162E-02
(1,2,4): (1,1,4) -3.010890E-02 (1,2,3) -2.418168E-02 (1,2,5) 3.406889E-02 (1,3,4) 0.131366
(1,2,5): (1,1,5) -5.693810E-02 (1,2,4) -3.406889E-02 (1,2,6) 1.328339E-02 (1,3,5) 0.260367
(1,2,6): (1,1,6) -6.726818E-02 (1,2,5) -1.328339E-02 (1,2,7) -1.327628E-02 (1,3,6) 0.305663
(1,2,7): (1,1,7) -5.694314E-02 (1,2,6) 1.327628E-02 (1,2,8) -3.403348E-02 (1,3,7) 0.260385
(1,2,8): (1,1,8) -3.013938E-02 (1,2,7) 3.403348E-02 (1,2,9) -2.399917E-02 (1,3,8) 0.131474
(1,2,9): (1,1,9) -1.149278E-02 (1,2,8) 2.399917E-02 (1,2,10) -9.604807E-03 (1,3,9) 4.753920E-02
(1,2,10): (1,1,10) -4.130817E-03 (1,2,9) 9.604807E-03 (1,3,10) 1.618660E-02
(1,3,1): (1,2,1) -3.667057E-03 (1,3,2) 1.272984E-02 (1,4,1) 1.018599E-02
(1,3,2): (1,2,2) -1.324004E-02 (1,3,1) -1.272984E-02 (1,3,3) 4.413175E-02 (1,4,2) 3.910664E-02
(1,3,3): (1,2,3) -4.694162E-02 (1,3,2) -4.413175E-02 (1,3,4) 0.108587 (1,4,3) 0.147989
(1,3,4): (1,2,4) -0.131366 (1,3,3) -0.108587 (1,3,5) 0.162946 (1,4,4) 0.447069
(1,3,5): (1,2,5) -0.260367 (1,3,4) -0.162946 (1,3,6) 5.846849E-02 (1,4,5) 0.961966
(1,3,6): (1,2,6) -0.305663 (1,3,5) -5.846849E-02 (1,3,7) -5.844394E-02 (1,4,6) 1.10645
(1,3,7): (1,2,7) -0.260385 (1,3,6) 5.844394E-02 (1,3,8) -0.162820 (1,4,7) 0.962011
(1,3,8): (1,2,8) -0.131474 (1,3,7) 0.162820 (1,3,9) -0.107914 (1,4,8) 0.447349
(1,3,9): (1,2,9) -4.753920E-02 (1,3,8) 0.107914 (1,3,10) -4.095534E-02 (1,4,9) 0.149592
(1,3,10): (1,2,10) -1.618660E-02 (1,3,9) 4.095534E-02 (1,4,10) 4.738599E-02
(1,4,1): (1,3,1) -1.018599E-02 (1,4,2) 4.165122E-02 (1,5,1) 1.847193E-02
(1,4,2): (1,3,2) -3.910664E-02 (1,4,1) -4.165122E-02 (1,4,3) 0.153020 (1,5,2) 7.672476E-02
(1,4,3): (1,3,3) -0.147989 (1,4,2) -0.153020 (1,4,4) 0.407551 (1,5,3) 0.318876
(1,4,4): (1,3,4) -0.447069 (1,4,3) -0.407551 (1,4,5) 0.676417 (1,5,4) 1.09703
(1,4,5): (1,3,5) -0.961966 (1,4,4) -0.676417 (1,4,6) 0.201702 (1,5,5) 2.83555
(1,4,6): (1,3,6) -1.10645 (1,4,5) -0.201702 (1,4,7) -0.201633 (1,5,6) 3.05282
(1,4,7): (1,3,7) -0.962011 (1,4,6) 0.201633 (1,4,8) -0.676056 (1,5,7) 2.83563
(1,4,8): (1,3,8) -0.447349 (1,4,7) 0.676056 (1,4,9) -0.405548 (1,5,8) 1.09750
(1,4,9): (1,3,9) -0.149592 (1,4,8) 0.405548 (1,4,10) -0.143155 (1,5,9) 0.321663
(1,4,10): (1,3,10) -4.738599E-02 (1,4,9) 0.143155 (1,5,10) 9.193135E-02
(1,5,1): (1,4,1) -1.847193E-02 (1,5,2) 9.991752E-02 (1,6,1) 9.935769E-03
(1,5,2): (1,4,2) -7.672476E-02 (1,5,1) -9.991752E-02 (1,5,3) 0.395354 (1,6,2) 4.817526E-02
(1,5,3): (1,4,3) -0.318876 (1,5,2) -0.395354 (1,5,4) 1.18637 (1,6,3) 0.251307
(1,5,4): (1,4,4) -1.09703 (1,5,3) -1.18637 (1,5,5) 2.40817 (1,6,4) 1.27226
(1,5,5): (1,4,5) -2.83555 (1,5,4) -2.40817 (1,5,6) 0.413972 (1,6,5) 6.59024
(1,5,6): (1,4,6) -3.05282 (1,5,5) -0.413972 (1,5,7) -0.413825 (1,6,6) 5.51670
(1,5,7): (1,4,7) -2.83563 (1,5,6) 0.413825 (1,5,8) -2.40740 (1,6,7) 6.59030
(1,5,8): (1,4,8) -1.09750 (1,5,7) 2.40740 (1,5,9) -1.18202 (1,6,8) 1.27248
(1,5,9): (1,4,9) -0.321663 (1,5,8) 1.18202 (1,5,10) -0.373003 (1,6,9) 0.252687
(1,5,10): (1,4,10) -9.193135E-02 (1,5,9) 0.373003 (1,6,10) 5.650186E-02
(1,6,1): (1,5,1) -9.935769E-03 (1,6,2) 0.138191 (1,7,1) -3.463072E-02
(1,6,2): (1,5,2) -4.817526E-02 (1,6,1) -0.138191 (1,6,3) 0.599181 (1,7,2) -0.166820
(1,6,3): (1,5,3) -0.251307 (1,6,2) -0.599181 (1,6,4) 2.21638 (1,7,3) -0.833476
(1,6,4): (1,5,4) -1.27226 (1,6,3) -2.21638 (1,6,5) 7.77747 (1,7,4) -3.75439
(1,6,5): (1,5,5) -6.59024 (1,6,4) -7.77747 (1,6,6) -0.609464 (1,7,5) -15.5577
(1,6,6): (1,5,6) -5.51670 (1,6,5) 0.609464 (1,6,7) 0.609664 (1,7,6) -27.6458
(1,6,7): (1,5,7) -6.59030 (1,6,6) -0.609664 (1,6,8) -7.77649 (1,7,7) -15.5579
(1,6,8): (1,5,8) -1.27248 (1,6,7) 7.77649 (1,6,9) -2.21080 (1,7,8) -3.75515
(1,6,9): (1,5,9) -0.252687 (1,6,8) 2.21080 (1,6,10) -0.569800 (1,7,9) -0.838293
(1,6,10): (1,5,10) -5.650186E-02 (1,6,9) 0.569800 (1,7,10) -0.195923
(1,7,1): (1,6,1) 3.463072E-02 (1,7,2) 6.040053E-03 (1,8,1) -3.026921E-02
(1,7,2): (1,6,2) 0.166820 (1,7,1) -6.040053E-03 (1,7,3) -6.598341E-02 (1,8,2) -0.143518
(1,7,3): (1,6,3) 0.833476 (1,7,2) 6.598341E-02 (1,7,4) -0.666839 (1,8,3) -0.721420
(1,7,4): (1,6,4) 3.75439 (1,7,3) 0.666839 (1,7,5) -3.40082 (1,8,4) -3.35211
(1,7,5): (1,6,5) 15.5577 (1,7,4) 3.40082 (1,7,6) -11.1869 (1,8,5) -14.5152
(1,7,6): (1,6,6) 27.6458 (1,7,5) 11.1869 (1,7,7) 11.1870 (1,8,6) -61.9125
(1,7,7): (1,6,7) 15.5579 (1,7,6) -11.1870 (1,7,8) 3.40114 (1,8,7) -14.5154
(1,7,8): (1,6,8) 3.75515 (1,7,7) -3.40114 (1,7,9) 0.668276 (1,8,8) -3.35278
(1,7,9): (1,6,9) 0.838293 (1,7,8) -0.668276 (1,7,10) 7.092545E-02 (1,8,9) -0.725671
(1,7,10): (1,6,10) 0.195923 (1,7,9) -7.092545E-02 (1,8,10) -0.168799
(1,8,1): (1,7,1) 3.026921E-02 (1,8,2) -0.107168 (1,9,1) 1.785908E-02
(1,8,2): (1,7,2) 0.143518 (1,8,1) 0.107168 (1,8,3) -0.643437 (1,9,2) 0.105507
(1,8,3): (1,7,3) 0.721420 (1,8,2) 0.643437 (1,8,4) -3.29608 (1,9,3) 0.615608
(1,8,4): (1,7,4) 3.35211 (1,8,3) 3.29608 (1,8,5) -14.5697 (1,9,4) 3.15072
(1,8,5): (1,7,5) 14.5152 (1,8,4) 14.5697 (1,8,6) -56.5565 (1,9,5) 14.2910
(1,8,6): (1,7,6) 61.9125 (1,8,5) 56.5565 (1,8,7) 56.5564 (1,9,6) 61.5710
(1,8,7): (1,7,7) 14.5154 (1,8,6) -56.5564 (1,8,8) 14.5694 (1,9,7) 14.2910
(1,8,8): (1,7,8) 3.35278 (1,8,7) -14.5694 (1,8,9) 3.29387 (1,9,8) 3.15097
(1,8,9): (1,7,9) 0.725671 (1,8,8) -3.29387 (1,8,10) 0.627252 (1,9,9) 0.617665
(1,8,10): (1,7,10) 0.168799 (1,8,9) -0.627252 (1,9,10) 0.121030
(1,9,1): (1,8,1) -1.785908E-02 (1,9,2) -1.951882E-02 (1,10,1) 2.775325E-02
(1,9,2): (1,8,2) -0.105507 (1,9,1) 1.951882E-02 (1,9,3) -0.133195 (1,10,2) 0.147036
(1,9,3): (1,8,3) -0.615608 (1,9,2) 0.133195 (1,9,4) -0.757326 (1,10,3) 0.788105
(1,9,4): (1,8,4) -3.15072 (1,9,3) 0.757326 (1,9,5) -3.39987 (1,10,4) 3.72480
(1,9,5): (1,8,5) -14.2910 (1,9,4) 3.39987 (1,9,6) -11.1771 (1,10,5) 15.7805
(1,9,6): (1,8,6) -61.5710 (1,9,5) 11.1771 (1,9,7) 11.1771 (1,10,6) 27.9052
(1,9,7): (1,8,7) -14.2910 (1,9,6) -11.1771 (1,9,8) 3.39982 (1,10,7) 15.7805
(1,9,8): (1,8,8) -3.15097 (1,9,7) -3.39982 (1,9,9) 0.756990 (1,10,8) 3.72531
(1,9,9): (1,8,9) -0.617665 (1,9,8) -0.756990 (1,9,10) 0.130570 (1,10,9) 0.791666
(1,9,10): (1,8,10) -0.121030 (1,9,9) -0.130570 (1,10,10) 0.170745
(1,10,1): (1,9,1) -2.775325E-02 (1,10,2) 9.971174E-02 (1,11,1) -5.724537E-03
(1,10,2): (1,9,2) -0.147036 (1,10,1) -9.971174E-02 (1,10,3) 0.506270 (1,11,2) -3.697011E-02
(1,10,3): (1,9,3) -0.788105 (1,10,2) -0.506270 (1,10,4) 2.14129 (1,11,3) -0.233074
(1,10,4): (1,9,4) -3.72480 (1,10,3) -2.14129 (1,10,5) 8.01698 (1,11,4) -1.31050
(1,10,5): (1,9,5) -15.7805 (1,10,4) -8.01698 (1,10,6) -0.591546 (1,11,5) -6.92942
(1,10,6): (1,9,6) -27.9052 (1,10,5) 0.591546 (1,10,7) 0.591632 (1,11,6) -5.92170
(1,10,7): (1,9,7) -15.7805 (1,10,6) -0.591632 (1,10,8) -8.01659 (1,11,7) -6.92945
(1,10,8): (1,9,8) -3.72531 (1,10,7) 8.01659 (1,10,9) -2.13852 (1,11,8) -1.31057
(1,10,9): (1,9,9) -0.791666 (1,10,8) 2.13852 (1,10,10) -0.488666 (1,11,9) -0.233688
(1,10,10): (1,9,10) -0.170745 (1,10,9) 0.488666 (1,11,10) -4.201722E-02
(1,11,1): (1,10,1) 5.724537E-03 (1,11,2) 6.844662E-02 (1,12,1) -1.089705E-02
(1,11,2): (1,10,2) 3.697011E-02 (1,11,1) -6.844662E-02 (1,11,3) 0.309637 (1,12,2) -5.359003E-02
(1,11,3): (1,10,3) 0.233074 (1,11,2) -0.309637 (1,11,4) 1.05541 (1,12,3) -0.256026
(1,11,4): (1,10,4) 1.31050 (1,11,3) -1.05541 (1,11,5) 2.34840 (1,12,4) -0.987926
(1,11,5): (1,10,5) 6.92942 (1,11,4) -2.34840 (1,11,6) 0.366149 (1,12,5) -2.75075
(1,11,6): (1,10,6) 5.92170 (1,11,5) -0.366149 (1,11,7) -0.366094 (1,12,6) -2.96141
(1,11,7): (1,10,7) 6.92945 (1,11,6) 0.366094 (1,11,8) -2.34807 (1,12,7) -2.75078
(1,11,8): (1,10,8) 1.31057 (1,11,7) 2.34807 (1,11,9) -1.05322 (1,12,8) -0.988134
(1,11,9): (1,10,9) 0.233688 (1,11,8) 1.05322 (1,11,10) -0.296513 (1,12,9) -0.257472
(1,11,10): (1,10,10) 4.201722E-02 (1,11,9) 0.296513 (1,12,10) -6.283294E-02
(1,12,1): (1,11,1) 1.089705E-02 (1,12,2) 2.574731E-02 (1,13,1) -5.405619E-03
(1,12,2): (1,11,2) 5.359003E-02 (1,12,1) -2.574731E-02 (1,12,3) 0.107094 (1,13,2) -2.413784E-02
(1,12,3): (1,11,3) 0.256026 (1,12,2) -0.107094 (1,12,4) 0.323035 (1,13,3) -0.103919
(1,12,4): (1,11,4) 0.987926 (1,12,3) -0.323035 (1,12,5) 0.592089 (1,13,4) -0.351341
(1,12,5): (1,11,5) 2.75075 (1,12,4) -0.592089 (1,12,6) 0.160315 (1,13,5) -0.819429
(1,12,6): (1,11,6) 2.96141 (1,12,5) -0.160315 (1,12,7) -0.160291 (1,13,6) -0.939553
(1,12,7): (1,11,7) 2.75078 (1,12,6) 0.160291 (1,12,8) -0.591942 (1,13,7) -0.819445
(1,12,8): (1,11,8) 0.988134 (1,12,7) 0.591942 (1,12,9) -0.322101 (1,13,8) -0.351457
(1,12,9): (1,11,9) 0.257472 (1,12,8) 0.322101 (1,12,10) -0.101799 (1,13,9) -0.104681
(1,12,10): (1,11,10) 6.283294E-02 (1,12,9) 0.101799 (1,13,10) -2.865678E-02
(1,13,1): (1,12,1) 5.405619E-03 (1,13,2) 7.014784E-03 (1,14,1) -1.734634E-03
(1,13,2): (1,12,2) 2.413784E-02 (1,13,1) -7.014784E-03 (1,13,3) 2.731058E-02 (1,14,2) -7.205254E-03
(1,13,3): (1,12,3) 0.103919 (1,13,2) -2.731058E-02 (1,13,4) 7.568162E-02 (1,14,3) -2.882966E-02
(1,13,4): (1,12,4) 0.351341 (1,13,3) -7.568162E-02 (1,13,5) 0.125039 (1,14,4) -8.977307E-02
(1,13,5): (1,12,5) 0.819429 (1,13,4) -0.125039 (1,13,6) 4.109518E-02 (1,14,5) -0.192151
(1,13,6): (1,12,6) 0.939553 (1,13,5) -4.109518E-02 (1,13,7) -4.108721E-02 (1,14,6) -0.225100
(1,13,7): (1,12,7) 0.819445 (1,13,6) 4.108721E-02 (1,13,8) -0.124992 (1,14,7) -0.192157
(1,13,8): (1,12,8) 0.351457 (1,13,7) 0.124992 (1,13,9) -7.539637E-02 (1,14,8) -8.981377E-02
(1,13,9): (1,12,9) 0.104681 (1,13,8) 7.539637E-02 (1,13,10) -2.577661E-02 (1,14,9) -2.908568E-02
(1,13,10): (1,12,10) 2.865678E-02 (1,13,9) 2.577661E-02 (1,14,10) -8.637983E-03
(1,14,1): (1,13,1) 1.734634E-03 (1,14,2) 1.544175E-03 (1,15,1) -4.145364E-04
(1,14,2): (1,13,2) 7.205254E-03 (1,14,1) -1.544175E-03 (1,14,3) 5.686507E-03 (1,15,2) -1.625090E-03
(1,14,3): (1,13,3) 2.882966E-02 (1,14,2) -5.686507E-03 (1,14,4) 1.474678E-02 (1,15,3) -6.146555E-03
(1,14,4): (1,13,4) 8.977307E-02 (1,14,3) -1.474678E-02 (1,14,5) 2.272934E-02 (1,15,4) -1.804937E-02
(1,14,5): (1,13,5) 0.192151 (1,14,4) -2.272934E-02 (1,14,6) 8.205939E-03 (1,15,5) -3.664046E-02
(1,14,6): (1,13,6) 0.225100 (1,14,5) -8.205939E-03 (1,14,7) -8.203822E-03 (1,15,6) -4.326506E-02
(1,14,7): (1,13,7) 0.192157 (1,14,6) 8.203822E-03 (1,14,8) -2.271734E-02 (1,15,7) -3.664202E-02
(1,14,8): (1,13,8) 8.981377E-02 (1,14,7) 2.271734E-02 (1,14,9) -1.467701E-02 (1,15,8) -1.805989E-02
(1,14,9): (1,13,9) 2.908568E-02 (1,14,8) 1.467701E-02 (1,14,10) -5.329594E-03 (1,15,9) -6.210059E-03
(1,14,10): (1,13,10) 8.637983E-03 (1,14,9) 5.329594E-03 (1,15,10) -1.963964E-03
(1,15,1): (1,14,1) 4.145364E-04 (1,15,2) 3.336223E-04
(1,15,2): (1,14,2) 1.625090E-03 (1,15,1) -3.336223E-04 (1,15,3) 1.165063E-03
(1,15,3): (1,14,3) 6.146555E-03 (1,15,2) -1.165063E-03 (1,15,4) 2.844358E-03
(1,15,4): (1,14,4) 1.804937E-02 (1,15,3) -2.844358E-03 (1,15,5) 4.140826E-03
(1,15,5): (1,14,5) 3.664046E-02 (1,15,4) -4.140826E-03 (1,15,6) 1.583657E-03
(1,15,6): (1,14,6) 4.326506E-02 (1,15,5) -1.583657E-03 (1,15,7) -1.583097E-03
(1,15,7): (1,14,7) 3.664202E-02 (1,15,6) 1.583097E-03 (1,15,8) -4.137798E-03
(1,15,8): (1,14,8) 1.805989E-02 (1,15,7) 4.137798E-03 (1,15,9) -2.827577E-03
(1,15,9): (1,14,9) 6.210059E-03 (1,15,8) 2.827577E-03 (1,15,10) -1.083536E-03
(1,15,10): (1,14,10) 1.963964E-03 (1,15,9) 1.083536E-03

 WEL PACKAGE (WEL-1) FLOW RATES   PERIOD      2   STEP       21
 ----------------------------------------------------------------------------------------
   NUMBER   CELLID                    RATE       NAME                                    
 ----------------------------------------------------------------------------------------
     1      (1,8,6)              -269.16689      WEL                                     
 ----------------------------------------------------------------------------------------




 DRN PACKAGE (DRN-0) FLOW RATES   PERIOD      2   STEP       21
 ----------------------------------------------------------------------------------------
   NUMBER   CELLID                    RATE       NAME                                    
 ----------------------------------------------------------------------------------------
     1      (1,1,1)               0.0000000      SURF                                    
     2      (1,1,2)               0.0000000      SURF                                    
     3      (1,1,3)               0.0000000      SURF                                    
     4      (1,1,4)               0.0000000      SURF                                    
     5      (1,1,5)               0.0000000      SURF                                    
     6      (1,1,6)               0.0000000      SURF                                    
     7      (1,1,7)               0.0000000      SURF                                    
     8      (1,1,8)               0.0000000      SURF                                    
     9      (1,1,9)               0.0000000      SURF                                    
     10     (1,1,10)              0.0000000      SURF                                    
     11     (1,2,1)               0.0000000      SURF                                    
     12     (1,2,2)               0.0000000      SURF                                    
     13     (1,2,3)               0.0000000      SURF                                    
     14     (1,2,4)               0.0000000      SURF                                    
     15     (1,2,5)               0.0000000      SURF                                    
     16     (1,2,6)               0.0000000      SURF                                    
     17     (1,2,7)               0.0000000      SURF                                    
     18     (1,2,8)               0.0000000      SURF                                    
     19     (1,2,9)               0.0000000      SURF                                    
     20     (1,2,10)              0.0000000      SURF                                    
     21     (1,3,1)               0.0000000      SURF                                    
     22     (1,3,2)               0.0000000      SURF                                    
     23     (1,3,3)               0.0000000      SURF                                    
     24     (1,3,4)               0.0000000      SURF                                    
     25     (1,3,5)               0.0000000      SURF                                    
     26     (1,3,6)               0.0000000      SURF                                    
     27     (1,3,7)               0.0000000      SURF                                    
     28     (1,3,8)               0.0000000      SURF                                    
     29     (1,3,9)               0.0000000      SURF                                    
     30     (1,3,10)              0.0000000      SURF                                    
     31     (1,4,1)               0.0000000      SURF                                    
     32     (1,4,2)               0.0000000      SURF                                    
     33     (1,4,3)               0.0000000      SURF                                    
     34     (1,4,4)               0.0000000      SURF                                    
     35     (1,4,5)               0.0000000      SURF                                    
     36     (1,4,6)               0.0000000      SURF                                    
     37     (1,4,7)               0.0000000      SURF                                    
     38     (1,4,8)               0.0000000      SURF                                    
     39     (1,4,9)               0.0000000      SURF                                    
     40     (1,4,10)              0.0000000      SURF                                    
     41     (1,5,1)               0.0000000      SURF                                    
     42     (1,5,2)               0.0000000      SURF                                    
     43     (1,5,3)               0.0000000      SURF                                    
     44     (1,5,4)               0.0000000      SURF                                    
     45     (1,5,5)               0.0000000      SURF                                    
     46     (1,5,6)               0.0000000      SURF                                    
     47     (1,5,7)               0.0000000      SURF                                    
     48     (1,5,8)               0.0000000      SURF                                    
     49     (1,5,9)               0.0000000      SURF                                    
     50     (1,5,10)              0.0000000      SURF                                    
     51     (1,6,1)               0.0000000      SURF                                    
     52     (1,6,2)               0.0000000      SURF                                    
     53     (1,6,3)               0.0000000      SURF                                    
     54     (1,6,4)               0.0000000      SURF                                    
     55     (1,6,5)               0.0000000      SURF                                    
     56     (1,6,6)               0.0000000      SURF                                    
     57     (1,6,7)              -9.37143341E-09 SURF                                    
     58     (1,6,8)               0.0000000      SURF                                    
     59     (1,6,9)               0.0000000      SURF                                    
     60     (1,6,10)              0.0000000      SURF                                    
     61     (1,7,1)               0.0000000      SURF                                    
     62     (1,7,2)               0.0000000      SURF                                    
     63     (1,7,3)               0.0000000      SURF                                    
     64     (1,7,4)               0.0000000      SURF                                    
     65     (1,7,5)               0.0000000      SURF                                    
     66     (1,7,6)               0.0000000      SURF                                    
     67     (1,7,7)               0.0000000      SURF                                    
     68     (1,7,8)               0.0000000      SURF                                    
     69     (1,7,9)               0.0000000      SURF                                    
     70     (1,7,10)              0.0000000      SURF                                    
     71     (1,8,1)               0.0000000      SURF                                    
     72     (1,8,2)               0.0000000      SURF                                    
     73     (1,8,3)               0.0000000      SURF                                    
     74     (1,8,4)               0.0000000      SURF                                    
     75     (1,8,5)               0.0000000      SURF                                    
     76     (1,8,6)               0.0000000      SURF                                    
     77     (1,8,7)               0.0000000      SURF                                    
     78     (1,8,8)               0.0000000      SURF                                    
     79     (1,8,9)               0.0000000      SURF                                    
     80     (1,8,10)              0.0000000      SURF                                    
     81     (1,9,1)               0.0000000      SURF                                    
     82     (1,9,2)               0.0000000      SURF                                    
     83     (1,9,3)               0.0000000      SURF                                    
     84     (1,9,4)               0.0000000      SURF                                    
     85     (1,9,5)               0.0000000      SURF                                    
     86     (1,9,6)               0.0000000      SURF                                    
     87     (1,9,7)               0.0000000      SURF                                    
     88     (1,9,8)               0.0000000      SURF                                    
     89     (1,9,9)               0.0000000      SURF                                    
     90     (1,9,10)              0.0000000      SURF                                    
     91     (1,10,1)              0.0000000      SURF                                    
     92     (1,10,2)              0.0000000      SURF                                    
     93     (1,10,3)              0.0000000      SURF                                    
     94     (1,10,4)              0.0000000      SURF                                    
     95     (1,10,5)              0.0000000      SURF                                    
     96     (1,10,6)              0.0000000      SURF                                    
     97     (1,10,7)             -3.04469722E-07 SURF                                    
     98     (1,10,8)              0.0000000      SURF                                    
     99     (1,10,9)              0.0000000      SURF                                    
    100     (1,10,10)             0.0000000      SURF                                    
    101     (1,11,1)              0.0000000      SURF                                    
    102     (1,11,2)              0.0000000      SURF                                    
    103     (1,11,3)              0.0000000      SURF                                    
    104     (1,11,4)              0.0000000      SURF                                    
    105     (1,11,5)              0.0000000      SURF                                    
    106     (1,11,6)              0.0000000      SURF                                    
    107     (1,11,7)              0.0000000      SURF                                    
    108     (1,11,8)              0.0000000      SURF                                    
    109     (1,11,9)              0.0000000      SURF                                    
    110     (1,11,10)             0.0000000      SURF                                    
    111     (1,12,1)              0.0000000      SURF                                    
    112     (1,12,2)              0.0000000      SURF                                    
    113     (1,12,3)              0.0000000      SURF                                    
    114     (1,12,4)              0.0000000      SURF                                    
    115     (1,12,5)              0.0000000      SURF                                    
    116     (1,12,6)              0.0000000      SURF                                    
    117     (1,12,7)              0.0000000      SURF                                    
    118     (1,12,8)              0.0000000      SURF                                    
    119     (1,12,9)              0.0000000      SURF                                    
    120     (1,12,10)             0.0000000      SURF                                    
    121     (1,13,1)              0.0000000      SURF                                    
    122     (1,13,2)              0.0000000      SURF                                    
    123     (1,13,3)              0.0000000      SURF                                    
    124     (1,13,4)              0.0000000      SURF                                    
    125     (1,13,5)              0.0000000      SURF                                    
    126     (1,13,6)              0.0000000      SURF                                    
    127     (1,13,7)              0.0000000      SURF                                    
    128     (1,13,8)              0.0000000      SURF                                    
    129     (1,13,9)              0.0000000      SURF                                    
    130     (1,13,10)             0.0000000      SURF                                    
    131     (1,14,1)              0.0000000      SURF                                    
    132     (1,14,2)              0.0000000      SURF                                    
    133     (1,14,3)              0.0000000      SURF                                    
    134     (1,14,4)              0.0000000      SURF                                    
    135     (1,14,5)              0.0000000      SURF                                    
    136     (1,14,6)              0.0000000      SURF                                    
    137     (1,14,7)              0.0000000      SURF                                    
    138     (1,14,8)              0.0000000      SURF                                    
    139     (1,14,9)              0.0000000      SURF                                    
    140     (1,14,10)             0.0000000      SURF                                    
    141     (1,15,1)              0.0000000      SURF                                    
    142     (1,15,2)              0.0000000      SURF                                    
    143     (1,15,3)              0.0000000      SURF                                    
    144     (1,15,4)              0.0000000      SURF                                    
    145     (1,15,5)              0.0000000      SURF                                    
    146     (1,15,6)              0.0000000      SURF                                    
    147     (1,15,7)              0.0000000      SURF                                    
    148     (1,15,8)              0.0000000      SURF                                    
    149     (1,15,9)              0.0000000      SURF                                    
    150     (1,15,10)             0.0000000      SURF                                    
 ----------------------------------------------------------------------------------------




 API PACKAGE (MAR) FLOW RATES   PERIOD      2   STEP       21
 -----------------------------------------------
   NUMBER   CELLID                    RATE      
 -----------------------------------------------
     1      (1,6,5)               30.534304     
     2      (1,6,6)               30.534304     
     3      (1,6,7)               30.534304     
     4      (1,10,5)              31.318217     
     5      (1,10,6)              31.318217     
     6      (1,10,7)              31.318217     
 -----------------------------------------------



1
  HEAD IN LAYER   1 AT END OF TIME STEP  21 IN STRESS PERIOD    2
  ---------------------------------------------------------------------------

            1           2           3           4           5           6           7           8           9          10
 ........................................................................................................................
   1   3.5088E-05  1.1287E-04  3.5853E-04  8.9879E-04  1.6232E-03  1.9191E-03  1.6235E-03  8.9999E-04  3.6467E-04  1.4038E-04
   2   1.3264E-04  4.4832E-04  1.4913E-03  3.9085E-03  7.3129E-03  8.6401E-03  7.3136E-03  3.9127E-03  1.5138E-03  5.5344E-04
   3   4.9933E-04  1.7721E-03  6.1825E-03  1.7023E-02  3.3263E-02  3.9087E-02  3.3266E-02  1.7038E-02  6.2647E-03  2.1717E-03
   4   1.5178E-03  5.6805E-03  2.0950E-02  6.1457E-02  0.1282      0.1481      0.1282      6.1499E-02  2.1192E-02  6.9071E-03
   5   3.3643E-03  1.3343E-02  5.2671E-02  0.1693      0.4009      0.4405      0.4009      0.1694      5.3188E-02  1.6085E-02
   6   4.3575E-03  1.8152E-02  7.7608E-02  0.2929       1.000      0.9446       1.000      0.2930      7.8261E-02  2.1723E-02
   7   8.9593E-04  1.4998E-03 -5.0975E-03 -7.1815E-02 -0.4144      -1.581     -0.4144     -7.1778E-02 -4.9175E-03  2.1735E-03
   8  -2.1307E-03 -1.2850E-02 -7.7276E-02 -0.4095      -1.929      -8.936      -1.929     -0.4095     -7.7520E-02 -1.4703E-02
   9  -3.4475E-04 -2.2967E-03 -1.5619E-02 -9.1470E-02 -0.4346      -1.603     -0.4346     -9.1475E-02 -1.5657E-02 -2.5966E-03
  10   2.4299E-03  1.2389E-02  6.2700E-02  0.2712       1.000      0.9462       1.000      0.2712      6.3014E-02  1.4453E-02
  11   1.8576E-03  8.6963E-03  3.9538E-02  0.1436      0.3700      0.4052      0.3701      0.1436      3.9791E-02  1.0258E-02
  12   7.6808E-04  3.3420E-03  1.4036E-02  4.6191E-02  0.1048      0.1206      0.1048      4.6208E-02  1.4146E-02  3.9808E-03
  13   2.2756E-04  9.2897E-04  3.6590E-03  1.1219E-02  2.3693E-02  2.7791E-02  2.3694E-02  1.1224E-02  3.6930E-03  1.1163E-03
  14   5.4102E-05  2.0852E-04  7.7712E-04  2.2515E-03  4.5234E-03  5.3435E-03  4.5236E-03  2.2529E-03  7.8551E-04  2.5259E-04
  15   1.2649E-05  4.6011E-05  1.6252E-04  4.4694E-04  8.6098E-04  1.0193E-03  8.6104E-04  4.4730E-04  1.6455E-04  5.6200E-05

 HEAD WILL BE SAVED ON UNIT 1100 AT END OF TIME STEP   21, STRESS PERIOD    2


  VOLUME BUDGET FOR ENTIRE MODEL AT END OF TIME STEP   21, STRESS PERIOD   2
  ---------------------------------------------------------------------------------------------------

     CUMULATIVE VOLUME      L**3       RATES FOR THIS TIME STEP      L**3/T          PACKAGE NAME    
     ------------------                 ------------------------                     ----------------

           IN:                                      IN:
           ---                                      ---
              STO-SS =          14.6923                STO-SS =       4.7977E-02     STORAGE                          
              STO-SY =       38702.9024                STO-SY =         134.6830     STORAGE                          
                 WEL =           0.0000                   WEL =           0.0000     WEL-1                            
                 DRN =           0.0000                   DRN =           0.0000     DRN-0                            
                 API =       42597.8531                   API =         185.5576     MAR                              
                 CHD =       2.0279E-08                   CHD =           0.0000     CHD_0                            

            TOTAL IN =       81315.4478              TOTAL IN =         320.2885

          OUT:                                     OUT:
          ----                                     ----
              STO-SS =          12.6841                STO-SS =       2.5949E-02     STORAGE                          
              STO-SY =       24611.0947                STO-SY =          51.0957     STORAGE                          
                 WEL =       56691.6689                   WEL =         269.1669     WEL-1                            
                 DRN =       5.5875E-05                   DRN =       3.1384E-07     DRN-0                            
                 API =           0.0000                   API =           0.0000     MAR                              
                 CHD =       2.0705E-08                   CHD =           0.0000     CHD_0                            

           TOTAL OUT =       81315.4478             TOTAL OUT =         320.2885

            IN - OUT =      -4.1530E-07              IN - OUT =      -3.3220E-09

 PERCENT DISCREPANCY =          -0.00     PERCENT DISCREPANCY =          -0.00




         TIME SUMMARY AT END OF TIME STEP   21 IN STRESS PERIOD    2
                    SECONDS     MINUTES      HOURS       DAYS        YEARS
                    -----------------------------------------------------------
   TIME STEP LENGTH 8.64000E+05  14400.      240.00      10.000     2.73785E-02
 STRESS PERIOD TIME 1.81440E+07 3.02400E+05  5040.0      210.00     0.57495    
         TOTAL TIME 1.82304E+07 3.03840E+05  5064.0      211.00     0.57769    


end timestep


start timestep kper="2" kstp="22" mode="normal"

 UBDSV1 SAVING           STO-SS ON UNIT   1099 AT TIME STEP     22, STRESS PERIOD      2
 UBDSV1 SAVING           STO-SY ON UNIT   1099 AT TIME STEP     22, STRESS PERIOD      2
 UBDSV1 SAVING     FLOW-JA-FACE ON UNIT   1099 AT TIME STEP     22, STRESS PERIOD      2
 UBDSV06 SAVING       DATA-SPDIS IN MODEL GWF              PACKAGE NPF             CONNECTED TO MODEL GWF              PACKAGE NPF              ON UNIT   1099 AT TIME STEP     22, STRESS PERIOD      2
 UBDSV06 SAVING              WEL IN MODEL GWF              PACKAGE GWF             CONNECTED TO MODEL GWF              PACKAGE WEL-1            ON UNIT   1099 AT TIME STEP     22, STRESS PERIOD      2
 UBDSV06 SAVING              DRN IN MODEL GWF              PACKAGE GWF             CONNECTED TO MODEL GWF              PACKAGE DRN-0            ON UNIT   1099 AT TIME STEP     22, STRESS PERIOD      2
 UBDSV06 SAVING              API IN MODEL GWF              PACKAGE GWF             CONNECTED TO MODEL GWF              PACKAGE MAR              ON UNIT   1099 AT TIME STEP     22, STRESS PERIOD      2
 UBDSV06 SAVING              CHD IN MODEL GWF              PACKAGE GWF             CONNECTED TO MODEL GWF              PACKAGE CHD_0            ON UNIT   1099 AT TIME STEP     22, STRESS PERIOD      2

    CALCULATED INTERCELL FLOW FOR PERIOD 2 STEP 22
(1,1,1): (1,1,2) 9.711786E-04 (1,2,1) 1.216405E-03
(1,1,2): (1,1,1) -9.711786E-04 (1,1,3) 2.986115E-03 (1,2,2) 4.040720E-03
(1,1,3): (1,1,2) -2.986115E-03 (1,1,4) 6.385715E-03 (1,2,3) 1.324960E-02
(1,1,4): (1,1,3) -6.385715E-03 (1,1,5) 8.369837E-03 (1,2,4) 3.432444E-02
(1,1,5): (1,1,4) -8.369837E-03 (1,1,6) 3.431184E-03 (1,2,5) 6.373039E-02
(1,1,6): (1,1,5) -3.431184E-03 (1,1,7) -3.428225E-03 (1,2,6) 7.509774E-02
(1,1,7): (1,1,6) 3.428225E-03 (1,1,8) -8.356144E-03 (1,2,7) 6.373722E-02
(1,1,8): (1,1,7) 8.356144E-03 (1,1,9) -6.320066E-03 (1,2,8) 3.436457E-02
(1,1,9): (1,1,8) 6.320066E-03 (1,1,10) -2.710607E-03 (1,2,9) 1.345847E-02
(1,1,10): (1,1,9) 2.710607E-03 (1,2,10) 5.000983E-03
(1,2,1): (1,1,1) -1.216405E-03 (1,2,2) 3.795487E-03 (1,3,1) 4.427326E-03
(1,2,2): (1,1,2) -4.040720E-03 (1,2,1) -3.795487E-03 (1,2,3) 1.219490E-02 (1,3,2) 1.542440E-02
(1,2,3): (1,1,3) -1.324960E-02 (1,2,2) -1.219490E-02 (1,2,4) 2.745910E-02 (1,3,3) 5.305003E-02
(1,2,4): (1,1,4) -3.432444E-02 (1,2,3) -2.745910E-02 (1,2,5) 3.776817E-02 (1,3,4) 0.144603
(1,2,5): (1,1,5) -6.373039E-02 (1,2,4) -3.776817E-02 (1,2,6) 1.479170E-02 (1,3,5) 0.281189
(1,2,6): (1,1,6) -7.509774E-02 (1,2,5) -1.479170E-02 (1,2,7) -1.478191E-02 (1,3,6) 0.329276
(1,2,7): (1,1,7) -6.373722E-02 (1,2,6) 1.478191E-02 (1,2,8) -3.772117E-02 (1,3,7) 0.281212
(1,2,8): (1,1,8) -3.436457E-02 (1,2,7) 3.772117E-02 (1,2,9) -2.722468E-02 (1,3,8) 0.144740
(1,2,9): (1,1,9) -1.345847E-02 (1,2,8) 2.722468E-02 (1,2,10) -1.116790E-02 (1,3,9) 5.378955E-02
(1,2,10): (1,1,10) -5.000983E-03 (1,2,9) 1.116790E-02 (1,3,10) 1.895450E-02
(1,3,1): (1,2,1) -4.427326E-03 (1,3,2) 1.479249E-02 (1,4,1) 1.185250E-02
(1,3,2): (1,2,2) -1.542440E-02 (1,3,1) -1.479249E-02 (1,3,3) 4.981932E-02 (1,4,2) 4.387234E-02
(1,3,3): (1,2,3) -5.305003E-02 (1,3,2) -4.981932E-02 (1,3,4) 0.118988 (1,4,3) 0.161006
(1,3,4): (1,2,4) -0.144603 (1,3,3) -0.118988 (1,3,5) 0.174210 (1,4,4) 0.473826
(1,3,5): (1,2,5) -0.281189 (1,3,4) -0.174210 (1,3,6) 6.275164E-02 (1,4,5) 1.00070
(1,3,6): (1,2,6) -0.329276 (1,3,5) -6.275164E-02 (1,3,7) -6.271888E-02 (1,4,6) 1.14774
(1,3,7): (1,2,7) -0.281212 (1,3,6) 6.271888E-02 (1,3,8) -0.174048 (1,4,7) 1.00076
(1,3,8): (1,2,8) -0.144740 (1,3,7) 0.174048 (1,3,9) -0.118151 (1,4,8) 0.474171
(1,3,9): (1,2,9) -5.378955E-02 (1,3,8) 0.118151 (1,3,10) -4.600024E-02 (1,4,9) 0.162920
(1,3,10): (1,2,10) -1.895450E-02 (1,3,9) 4.600024E-02 (1,4,10) 5.343410E-02
(1,4,1): (1,3,1) -1.185250E-02 (1,4,2) 4.681328E-02 (1,5,1) 2.059200E-02
(1,4,2): (1,3,2) -4.387234E-02 (1,4,1) -4.681328E-02 (1,4,3) 0.166960 (1,5,2) 8.243880E-02
(1,4,3): (1,3,3) -0.161006 (1,4,2) -0.166960 (1,4,4) 0.431679 (1,5,3) 0.332632
(1,4,4): (1,3,4) -0.473826 (1,4,3) -0.431679 (1,4,5) 0.699547 (1,5,4) 1.11828
(1,4,5): (1,3,5) -1.00070 (1,4,4) -0.699547 (1,4,6) 0.208471 (1,5,5) 2.85179
(1,4,6): (1,3,6) -1.14774 (1,4,5) -0.208471 (1,4,7) -0.208381 (1,5,6) 3.05506
(1,4,7): (1,3,7) -1.00076 (1,4,6) 0.208381 (1,4,8) -0.699095 (1,5,7) 2.85189
(1,4,8): (1,3,8) -0.474171 (1,4,7) 0.699095 (1,4,9) -0.429265 (1,5,8) 1.11883
(1,4,9): (1,3,9) -0.162920 (1,4,8) 0.429265 (1,4,10) -0.155478 (1,5,9) 0.335824
(1,4,10): (1,3,10) -5.343410E-02 (1,4,9) 0.155478 (1,5,10) 9.926756E-02
(1,5,1): (1,4,1) -2.059200E-02 (1,5,2) 0.108676 (1,6,1) 9.856891E-03
(1,5,2): (1,4,2) -8.243880E-02 (1,5,1) -0.108676 (1,5,3) 0.417362 (1,6,2) 4.642732E-02
(1,5,3): (1,4,3) -0.332632 (1,5,2) -0.417362 (1,5,4) 1.21808 (1,6,3) 0.239752
(1,5,4): (1,4,4) -1.11828 (1,5,3) -1.21808 (1,5,5) 2.42636 (1,6,4) 1.22614
(1,5,5): (1,4,5) -2.85179 (1,5,4) -2.42636 (1,5,6) 0.407063 (1,6,5) 6.50062
(1,5,6): (1,4,6) -3.05506 (1,5,5) -0.407063 (1,5,7) -0.406879 (1,6,6) 5.36055
(1,5,7): (1,4,7) -2.85189 (1,5,6) 0.406879 (1,5,8) -2.42543 (1,6,7) 6.50068
(1,5,8): (1,4,8) -1.11883 (1,5,7) 2.42543 (1,5,9) -1.21298 (1,6,8) 1.22637
(1,5,9): (1,4,9) -0.335824 (1,5,8) 1.21298 (1,5,10) -0.392167 (1,6,9) 0.241156
(1,5,10): (1,4,10) -9.926756E-02 (1,5,9) 0.392167 (1,6,10) 5.463105E-02
(1,6,1): (1,5,1) -9.856891E-03 (1,6,2) 0.145283 (1,7,1) -3.907180E-02
(1,6,2): (1,5,2) -4.642732E-02 (1,6,1) -0.145283 (1,6,3) 0.611393 (1,7,2) -0.182031
(1,6,3): (1,5,3) -0.239752 (1,6,2) -0.611393 (1,6,4) 2.21360 (1,7,3) -0.885198
(1,6,4): (1,5,4) -1.22614 (1,6,3) -2.21360 (1,6,5) 7.75464 (1,7,4) -3.90024
(1,6,5): (1,5,5) -6.50062 (1,6,4) -7.75464 (1,6,6) -0.681154 (1,7,5) -15.9193
(1,6,6): (1,5,6) -5.36055 (1,6,5) 0.681154 (1,6,7) 0.681393 (1,7,6) -28.1619
(1,6,7): (1,5,7) -6.50068 (1,6,6) -0.681393 (1,6,8) -7.75348 (1,7,7) -15.9195
(1,6,8): (1,5,8) -1.22637 (1,6,7) 7.75348 (1,6,9) -2.20727 (1,7,8) -3.90116
(1,6,9): (1,5,9) -0.241156 (1,6,8) 2.20727 (1,6,10) -0.579311 (1,7,9) -0.890774
(1,6,10): (1,5,10) -5.463105E-02 (1,6,9) 0.579311 (1,7,10) -0.214673
(1,7,1): (1,6,1) 3.907180E-02 (1,7,2) 2.375802E-03 (1,8,1) -3.388345E-02
(1,7,2): (1,6,2) 0.182031 (1,7,1) -2.375802E-03 (1,7,3) -8.996350E-02 (1,8,2) -0.155437
(1,7,3): (1,6,3) 0.885198 (1,7,2) 8.996350E-02 (1,7,4) -0.759539 (1,8,3) -0.761197
(1,7,4): (1,6,4) 3.90024 (1,7,3) 0.759539 (1,7,5) -3.60349 (1,8,4) -3.46188
(1,7,5): (1,6,5) 15.9193 (1,7,4) 3.60349 (1,7,6) -11.3619 (1,8,5) -14.7390
(1,7,6): (1,6,6) 28.1619 (1,7,5) 11.3619 (1,7,7) 11.3620 (1,8,6) -61.9312
(1,7,7): (1,6,7) 15.9195 (1,7,6) -11.3620 (1,7,8) 3.60385 (1,8,7) -14.7392
(1,7,8): (1,6,8) 3.90116 (1,7,7) -3.60385 (1,7,9) 0.761111 (1,8,8) -3.46267
(1,7,9): (1,6,9) 0.890774 (1,7,8) -0.761111 (1,7,10) 9.481102E-02 (1,8,9) -0.766077
(1,7,10): (1,6,10) 0.214673 (1,7,9) -9.481102E-02 (1,8,10) -0.183558
(1,8,1): (1,7,1) 3.388345E-02 (1,8,2) -0.119133 (1,9,1) 2.050227E-02
(1,8,2): (1,7,2) 0.155437 (1,8,1) 0.119133 (1,8,3) -0.695327 (1,9,2) 0.116456
(1,8,3): (1,7,3) 0.761197 (1,8,2) 0.695327 (1,8,4) -3.46017 (1,9,3) 0.657579
(1,8,4): (1,7,4) 3.46188 (1,8,3) 3.46017 (1,8,5) -14.8977 (1,9,4) 3.27325
(1,8,5): (1,7,5) 14.7390 (1,8,4) 14.8977 (1,8,6) -56.4816 (1,9,5) 14.5373
(1,8,6): (1,7,6) 61.9312 (1,8,5) 56.4816 (1,8,7) 56.4816 (1,9,6) 61.6300
(1,8,7): (1,7,7) 14.7392 (1,8,6) -56.4816 (1,8,8) 14.8973 (1,9,7) 14.5374
(1,8,8): (1,7,8) 3.46267 (1,8,7) -14.8973 (1,8,9) 3.45757 (1,9,8) 3.27355
(1,8,9): (1,7,9) 0.766077 (1,8,8) -3.45757 (1,8,10) 0.676812 (1,9,9) 0.660016
(1,8,10): (1,7,10) 0.183558 (1,8,9) -0.676812 (1,9,10) 0.134177
(1,9,1): (1,8,1) -2.050227E-02 (1,9,2) -2.317712E-02 (1,10,1) 3.182634E-02
(1,9,2): (1,8,2) -0.116456 (1,9,1) 2.317712E-02 (1,9,3) -0.154000 (1,10,2) 0.162218
(1,9,3): (1,8,3) -0.657579 (1,9,2) 0.154000 (1,9,4) -0.839674 (1,10,3) 0.841644
(1,9,4): (1,8,4) -3.27325 (1,9,3) 0.839674 (1,9,5) -3.59480 (1,10,4) 3.87220
(1,9,5): (1,8,5) -14.5373 (1,9,4) 3.59480 (1,9,6) -11.3490 (1,10,5) 16.1197
(1,9,6): (1,8,6) -61.6300 (1,9,5) 11.3490 (1,9,7) 11.3490 (1,10,6) 28.3975
(1,9,7): (1,8,7) -14.5374 (1,9,6) -11.3490 (1,9,8) 3.59476 (1,10,7) 16.1198
(1,9,8): (1,8,8) -3.27355 (1,9,7) -3.59476 (1,9,9) 0.839290 (1,10,8) 3.87282
(1,9,9): (1,8,9) -0.660016 (1,9,8) -0.839290 (1,9,10) 0.150885 (1,10,9) 0.845849
(1,9,10): (1,8,10) -0.134177 (1,9,9) -0.150885 (1,10,10) 0.189244
(1,10,1): (1,9,1) -3.182634E-02 (1,10,2) 0.107149 (1,11,1) -5.714768E-03
(1,10,2): (1,9,2) -0.162218 (1,10,1) -0.107149 (1,10,3) 0.523532 (1,11,2) -3.616447E-02
(1,10,3): (1,9,3) -0.841644 (1,10,2) -0.523532 (1,10,4) 2.14877 (1,11,3) -0.225213
(1,10,4): (1,9,4) -3.87220 (1,10,3) -2.14877 (1,10,5) 7.97902 (1,11,4) -1.26796
(1,10,5): (1,9,5) -16.1197 (1,10,4) -7.97902 (1,10,6) -0.659769 (1,11,5) -6.81806
(1,10,6): (1,9,6) -28.3975 (1,10,5) 0.659769 (1,10,7) 0.659873 (1,11,6) -5.73985
(1,10,7): (1,9,7) -16.1198 (1,10,6) -0.659873 (1,10,8) -7.97854 (1,11,7) -6.81809
(1,10,8): (1,9,8) -3.87282 (1,10,7) 7.97854 (1,10,9) -2.14551 (1,11,8) -1.26803
(1,10,9): (1,9,9) -0.845849 (1,10,8) 2.14551 (1,10,10) -0.503734 (1,11,9) -0.225835
(1,10,10): (1,9,10) -0.189244 (1,10,9) 0.503734 (1,11,10) -4.119003E-02
(1,11,1): (1,10,1) 5.714768E-03 (1,11,2) 7.667728E-02 (1,12,1) -1.258522E-02
(1,11,2): (1,10,2) 3.616447E-02 (1,11,1) -7.667728E-02 (1,11,3) 0.333927 (1,12,2) -5.923448E-02
(1,11,3): (1,10,3) 0.225213 (1,11,2) -0.333927 (1,11,4) 1.09736 (1,12,3) -0.272702
(1,11,4): (1,10,4) 1.26796 (1,11,3) -1.09736 (1,11,5) 2.37654 (1,12,4) -1.01996
(1,11,5): (1,10,5) 6.81806 (1,11,4) -2.37654 (1,11,6) 0.366404 (1,12,5) -2.78245
(1,11,6): (1,10,6) 5.73985 (1,11,5) -0.366404 (1,11,7) -0.366331 (1,12,6) -2.98358
(1,11,7): (1,10,7) 6.81809 (1,11,6) 0.366331 (1,11,8) -2.37612 (1,12,7) -2.78249
(1,11,8): (1,10,8) 1.26803 (1,11,7) 2.37612 (1,11,9) -1.09469 (1,12,8) -1.02022
(1,11,9): (1,10,9) 0.225835 (1,11,8) 1.09469 (1,11,10) -0.318583 (1,12,9) -0.274429
(1,11,10): (1,10,10) 4.119003E-02 (1,11,9) 0.318583 (1,12,10) -6.983315E-02
(1,12,1): (1,11,1) 1.258522E-02 (1,12,2) 3.001990E-02 (1,13,1) -6.563570E-03
(1,12,2): (1,11,2) 5.923448E-02 (1,12,1) -3.001990E-02 (1,12,3) 0.120330 (1,13,2) -2.807343E-02
(1,12,3): (1,11,3) 0.272702 (1,12,2) -0.120330 (1,12,4) 0.349545 (1,13,3) -0.116424
(1,12,4): (1,11,4) 1.01996 (1,12,3) -0.349545 (1,12,5) 0.620599 (1,13,4) -0.380647
(1,12,5): (1,11,5) 2.78245 (1,12,4) -0.620599 (1,12,6) 0.169899 (1,13,5) -0.865711
(1,12,6): (1,11,6) 2.98358 (1,12,5) -0.169899 (1,12,7) -0.169866 (1,13,6) -0.991025
(1,12,7): (1,11,7) 2.78249 (1,12,6) 0.169866 (1,12,8) -0.620406 (1,13,7) -0.865734
(1,12,8): (1,11,8) 1.02022 (1,12,7) 0.620406 (1,12,9) -0.348363 (1,13,8) -0.380798
(1,12,9): (1,11,9) 0.274429 (1,12,8) 0.348363 (1,12,10) -0.113897 (1,13,9) -0.117379
(1,12,10): (1,11,10) 6.983315E-02 (1,12,9) 0.113897 (1,13,10) -3.351940E-02
(1,13,1): (1,12,1) 6.563570E-03 (1,13,2) 8.509625E-03 (1,14,1) -2.198111E-03
(1,13,2): (1,12,2) 2.807343E-02 (1,13,1) -8.509625E-03 (1,13,3) 3.197580E-02 (1,14,2) -8.759156E-03
(1,13,3): (1,12,3) 0.116424 (1,13,2) -3.197580E-02 (1,13,4) 8.540340E-02 (1,14,3) -3.379798E-02
(1,13,4): (1,12,4) 0.380647 (1,13,3) -8.540340E-02 (1,13,5) 0.136691 (1,14,4) -0.101847
(1,13,5): (1,12,5) 0.865711 (1,13,4) -0.136691 (1,13,6) 4.557719E-02 (1,14,5) -0.212654
(1,13,6): (1,12,6) 0.991025 (1,13,5) -4.557719E-02 (1,13,7) -4.556588E-02 (1,14,6) -0.248797
(1,13,7): (1,12,7) 0.865734 (1,13,6) 4.556588E-02 (1,13,8) -0.136628 (1,14,7) -0.212663
(1,13,8): (1,12,8) 0.380798 (1,13,7) 0.136628 (1,13,9) -8.502922E-02 (1,14,8) -0.101902
(1,13,9): (1,12,9) 0.117379 (1,13,8) 8.502922E-02 (1,13,10) -3.004002E-02 (1,14,9) -3.413213E-02
(1,13,10): (1,12,10) 3.351940E-02 (1,13,9) 3.004002E-02 (1,14,10) -1.056077E-02
(1,14,1): (1,13,1) 2.198111E-03 (1,14,2) 1.948597E-03 (1,15,1) -5.453072E-04
(1,14,2): (1,13,2) 8.759156E-03 (1,14,1) -1.948597E-03 (1,14,3) 6.937433E-03 (1,15,2) -2.054503E-03
(1,14,3): (1,13,3) 3.379798E-02 (1,14,2) -6.937433E-03 (1,14,4) 1.736520E-02 (1,15,3) -7.505712E-03
(1,14,4): (1,13,4) 0.101847 (1,14,3) -1.736520E-02 (1,14,5) 2.596805E-02 (1,15,4) -2.136278E-02
(1,14,5): (1,13,5) 0.212654 (1,14,4) -2.596805E-02 (1,14,6) 9.507106E-03 (1,15,5) -4.236841E-02
(1,14,6): (1,13,6) 0.248797 (1,14,5) -9.507106E-03 (1,14,7) -9.503999E-03 (1,15,6) -4.995574E-02
(1,14,7): (1,13,7) 0.212663 (1,14,6) 9.503999E-03 (1,14,8) -2.595113E-02 (1,15,7) -4.237067E-02
(1,14,8): (1,13,8) 0.101902 (1,14,7) 2.595113E-02 (1,14,9) -1.727029E-02 (1,15,8) -2.137752E-02
(1,14,9): (1,13,9) 3.413213E-02 (1,14,8) 1.727029E-02 (1,14,10) -6.469616E-03 (1,15,9) -7.591596E-03
(1,14,10): (1,13,10) 1.056077E-02 (1,14,9) 6.469616E-03 (1,15,10) -2.496821E-03
(1,15,1): (1,14,1) 5.453072E-04 (1,15,2) 4.394027E-04
(1,15,2): (1,14,2) 2.054503E-03 (1,15,1) -4.394027E-04 (1,15,3) 1.486254E-03
(1,15,3): (1,14,3) 7.505712E-03 (1,15,2) -1.486254E-03 (1,15,4) 3.508685E-03
(1,15,4): (1,14,4) 2.136278E-02 (1,15,3) -3.508685E-03 (1,15,5) 4.965854E-03
(1,15,5): (1,14,5) 4.236841E-02 (1,15,4) -4.965854E-03 (1,15,6) 1.922842E-03
(1,15,6): (1,14,6) 4.995574E-02 (1,15,5) -1.922842E-03 (1,15,7) -1.921990E-03
(1,15,7): (1,14,7) 4.237067E-02 (1,15,6) 1.921990E-03 (1,15,8) -4.961416E-03
(1,15,8): (1,14,8) 2.137752E-02 (1,15,7) 4.961416E-03 (1,15,9) -3.484936E-03
(1,15,9): (1,14,9) 7.591596E-03 (1,15,8) 3.484936E-03 (1,15,10) -1.374898E-03
(1,15,10): (1,14,10) 2.496821E-03 (1,15,9) 1.374898E-03

 WEL PACKAGE (WEL-1) FLOW RATES   PERIOD      2   STEP       22
 ----------------------------------------------------------------------------------------
   NUMBER   CELLID                    RATE       NAME                                    
 ----------------------------------------------------------------------------------------
     1      (1,8,6)              -257.72181      WEL                                     
 ----------------------------------------------------------------------------------------




 DRN PACKAGE (DRN-0) FLOW RATES   PERIOD      2   STEP       22
 ----------------------------------------------------------------------------------------
   NUMBER   CELLID                    RATE       NAME                                    
 ----------------------------------------------------------------------------------------
     1      (1,1,1)               0.0000000      SURF                                    
     2      (1,1,2)               0.0000000      SURF                                    
     3      (1,1,3)               0.0000000      SURF                                    
     4      (1,1,4)               0.0000000      SURF                                    
     5      (1,1,5)               0.0000000      SURF                                    
     6      (1,1,6)               0.0000000      SURF                                    
     7      (1,1,7)               0.0000000      SURF                                    
     8      (1,1,8)               0.0000000      SURF                                    
     9      (1,1,9)               0.0000000      SURF                                    
     10     (1,1,10)              0.0000000      SURF                                    
     11     (1,2,1)               0.0000000      SURF                                    
     12     (1,2,2)               0.0000000      SURF                                    
     13     (1,2,3)               0.0000000      SURF                                    
     14     (1,2,4)               0.0000000      SURF                                    
     15     (1,2,5)               0.0000000      SURF                                    
     16     (1,2,6)               0.0000000      SURF                                    
     17     (1,2,7)               0.0000000      SURF                                    
     18     (1,2,8)               0.0000000      SURF                                    
     19     (1,2,9)               0.0000000      SURF                                    
     20     (1,2,10)              0.0000000      SURF                                    
     21     (1,3,1)               0.0000000      SURF                                    
     22     (1,3,2)               0.0000000      SURF                                    
     23     (1,3,3)               0.0000000      SURF                                    
     24     (1,3,4)               0.0000000      SURF                                    
     25     (1,3,5)               0.0000000      SURF                                    
     26     (1,3,6)               0.0000000      SURF                                    
     27     (1,3,7)               0.0000000      SURF                                    
     28     (1,3,8)               0.0000000      SURF                                    
     29     (1,3,9)               0.0000000      SURF                                    
     30     (1,3,10)              0.0000000      SURF                                    
     31     (1,4,1)               0.0000000      SURF                                    
     32     (1,4,2)               0.0000000      SURF                                    
     33     (1,4,3)               0.0000000      SURF                                    
     34     (1,4,4)               0.0000000      SURF                                    
     35     (1,4,5)               0.0000000      SURF                                    
     36     (1,4,6)               0.0000000      SURF                                    
     37     (1,4,7)               0.0000000      SURF                                    
     38     (1,4,8)               0.0000000      SURF                                    
     39     (1,4,9)               0.0000000      SURF                                    
     40     (1,4,10)              0.0000000      SURF                                    
     41     (1,5,1)               0.0000000      SURF                                    
     42     (1,5,2)               0.0000000      SURF                                    
     43     (1,5,3)               0.0000000      SURF                                    
     44     (1,5,4)               0.0000000      SURF                                    
     45     (1,5,5)               0.0000000      SURF                                    
     46     (1,5,6)               0.0000000      SURF                                    
     47     (1,5,7)               0.0000000      SURF                                    
     48     (1,5,8)               0.0000000      SURF                                    
     49     (1,5,9)               0.0000000      SURF                                    
     50     (1,5,10)              0.0000000      SURF                                    
     51     (1,6,1)               0.0000000      SURF                                    
     52     (1,6,2)               0.0000000      SURF                                    
     53     (1,6,3)               0.0000000      SURF                                    
     54     (1,6,4)               0.0000000      SURF                                    
     55     (1,6,5)               0.0000000      SURF                                    
     56     (1,6,6)               0.0000000      SURF                                    
     57     (1,6,7)              -6.30097929E-09 SURF                                    
     58     (1,6,8)               0.0000000      SURF                                    
     59     (1,6,9)               0.0000000      SURF                                    
     60     (1,6,10)              0.0000000      SURF                                    
     61     (1,7,1)               0.0000000      SURF                                    
     62     (1,7,2)               0.0000000      SURF                                    
     63     (1,7,3)               0.0000000      SURF                                    
     64     (1,7,4)               0.0000000      SURF                                    
     65     (1,7,5)               0.0000000      SURF                                    
     66     (1,7,6)               0.0000000      SURF                                    
     67     (1,7,7)               0.0000000      SURF                                    
     68     (1,7,8)               0.0000000      SURF                                    
     69     (1,7,9)               0.0000000      SURF                                    
     70     (1,7,10)              0.0000000      SURF                                    
     71     (1,8,1)               0.0000000      SURF                                    
     72     (1,8,2)               0.0000000      SURF                                    
     73     (1,8,3)               0.0000000      SURF                                    
     74     (1,8,4)               0.0000000      SURF                                    
     75     (1,8,5)               0.0000000      SURF                                    
     76     (1,8,6)               0.0000000      SURF                                    
     77     (1,8,7)               0.0000000      SURF                                    
     78     (1,8,8)               0.0000000      SURF                                    
     79     (1,8,9)               0.0000000      SURF                                    
     80     (1,8,10)              0.0000000      SURF                                    
     81     (1,9,1)               0.0000000      SURF                                    
     82     (1,9,2)               0.0000000      SURF                                    
     83     (1,9,3)               0.0000000      SURF                                    
     84     (1,9,4)               0.0000000      SURF                                    
     85     (1,9,5)               0.0000000      SURF                                    
     86     (1,9,6)               0.0000000      SURF                                    
     87     (1,9,7)               0.0000000      SURF                                    
     88     (1,9,8)               0.0000000      SURF                                    
     89     (1,9,9)               0.0000000      SURF                                    
     90     (1,9,10)              0.0000000      SURF                                    
     91     (1,10,1)              0.0000000      SURF                                    
     92     (1,10,2)              0.0000000      SURF                                    
     93     (1,10,3)              0.0000000      SURF                                    
     94     (1,10,4)              0.0000000      SURF                                    
     95     (1,10,5)              0.0000000      SURF                                    
     96     (1,10,6)              0.0000000      SURF                                    
     97     (1,10,7)             -3.01384716E-07 SURF                                    
     98     (1,10,8)              0.0000000      SURF                                    
     99     (1,10,9)              0.0000000      SURF                                    
    100     (1,10,10)             0.0000000      SURF                                    
    101     (1,11,1)              0.0000000      SURF                                    
    102     (1,11,2)              0.0000000      SURF                                    
    103     (1,11,3)              0.0000000      SURF                                    
    104     (1,11,4)              0.0000000      SURF                                    
    105     (1,11,5)              0.0000000      SURF                                    
    106     (1,11,6)              0.0000000      SURF                                    
    107     (1,11,7)              0.0000000      SURF                                    
    108     (1,11,8)              0.0000000      SURF                                    
    109     (1,11,9)              0.0000000      SURF                                    
    110     (1,11,10)             0.0000000      SURF                                    
    111     (1,12,1)              0.0000000      SURF                                    
    112     (1,12,2)              0.0000000      SURF                                    
    113     (1,12,3)              0.0000000      SURF                                    
    114     (1,12,4)              0.0000000      SURF                                    
    115     (1,12,5)              0.0000000      SURF                                    
    116     (1,12,6)              0.0000000      SURF                                    
    117     (1,12,7)              0.0000000      SURF                                    
    118     (1,12,8)              0.0000000      SURF                                    
    119     (1,12,9)              0.0000000      SURF                                    
    120     (1,12,10)             0.0000000      SURF                                    
    121     (1,13,1)              0.0000000      SURF                                    
    122     (1,13,2)              0.0000000      SURF                                    
    123     (1,13,3)              0.0000000      SURF                                    
    124     (1,13,4)              0.0000000      SURF                                    
    125     (1,13,5)              0.0000000      SURF                                    
    126     (1,13,6)              0.0000000      SURF                                    
    127     (1,13,7)              0.0000000      SURF                                    
    128     (1,13,8)              0.0000000      SURF                                    
    129     (1,13,9)              0.0000000      SURF                                    
    130     (1,13,10)             0.0000000      SURF                                    
    131     (1,14,1)              0.0000000      SURF                                    
    132     (1,14,2)              0.0000000      SURF                                    
    133     (1,14,3)              0.0000000      SURF                                    
    134     (1,14,4)              0.0000000      SURF                                    
    135     (1,14,5)              0.0000000      SURF                                    
    136     (1,14,6)              0.0000000      SURF                                    
    137     (1,14,7)              0.0000000      SURF                                    
    138     (1,14,8)              0.0000000      SURF                                    
    139     (1,14,9)              0.0000000      SURF                                    
    140     (1,14,10)             0.0000000      SURF                                    
    141     (1,15,1)              0.0000000      SURF                                    
    142     (1,15,2)              0.0000000      SURF                                    
    143     (1,15,3)              0.0000000      SURF                                    
    144     (1,15,4)              0.0000000      SURF                                    
    145     (1,15,5)              0.0000000      SURF                                    
    146     (1,15,6)              0.0000000      SURF                                    
    147     (1,15,7)              0.0000000      SURF                                    
    148     (1,15,8)              0.0000000      SURF                                    
    149     (1,15,9)              0.0000000      SURF                                    
    150     (1,15,10)             0.0000000      SURF                                    
 ----------------------------------------------------------------------------------------




 API PACKAGE (MAR) FLOW RATES   PERIOD      2   STEP       22
 -----------------------------------------------
   NUMBER   CELLID                    RATE      
 -----------------------------------------------
     1      (1,6,5)               30.855007     
     2      (1,6,6)               30.855007     
     3      (1,6,7)               30.855007     
     4      (1,10,5)              31.576331     
     5      (1,10,6)              31.576331     
     6      (1,10,7)              31.576331     
 -----------------------------------------------



1
  HEAD IN LAYER   1 AT END OF TIME STEP  22 IN STRESS PERIOD    2
  ---------------------------------------------------------------------------

            1           2           3           4           5           6           7           8           9          10
 ........................................................................................................................
   1   4.6020E-05  1.4314E-04  4.4173E-04  1.0802E-03  1.9171E-03  2.2601E-03  1.9174E-03  1.0819E-03  4.4996E-04  1.7892E-04
   2   1.6766E-04  5.4719E-04  1.7665E-03  4.5111E-03  8.2848E-03  9.7625E-03  8.2858E-03  4.5168E-03  1.7956E-03  6.7898E-04
   3   6.1036E-04  2.0893E-03  7.0677E-03  1.8944E-02  3.6302E-02  4.2551E-02  3.6305E-02  1.8963E-02  7.1707E-03  2.5739E-03
   4   1.7954E-03  6.4737E-03  2.3131E-02  6.6016E-02  0.1350      0.1556      0.1350      6.6069E-02  2.3425E-02  7.9131E-03
   5   3.8538E-03  1.4705E-02  5.6208E-02  0.1759      0.4090      0.4480      0.4090      0.1760      5.6817E-02  1.7822E-02
   6   4.8390E-03  1.9339E-02  7.9993E-02  0.2950       1.000      0.9381       1.000      0.2951      8.0740E-02  2.3273E-02
   7   9.3373E-04  1.1713E-03 -7.8240E-03 -8.3837E-02 -0.4472      -1.637     -0.4472     -8.3793E-02 -7.6241E-03  1.8552E-03
   8  -2.4543E-03 -1.4371E-02 -8.4003E-02 -0.4330      -1.990      -9.042      -1.990     -0.4330     -8.4290E-02 -1.6497E-02
   9  -4.0399E-04 -2.7218E-03 -1.8126E-02 -0.1022     -0.4654      -1.656     -0.4654     -0.1023     -1.8169E-02 -3.0754E-03
  10   2.7778E-03  1.3478E-02  6.5491E-02  0.2746       1.000      0.9400       1.000      0.2747      6.5863E-02  1.5819E-02
  11   2.2064E-03  9.8666E-03  4.3116E-02  0.1512      0.3802      0.4153      0.3802      0.1513      4.3427E-02  1.1707E-02
  12   9.4820E-04  3.9490E-03  1.5963E-02  5.0741E-02  0.1121      0.1289      0.1121      5.0763E-02  1.6103E-02  4.7315E-03
  13   2.9190E-04  1.1428E-03  4.3390E-03  1.2868E-02  2.6501E-02  3.1045E-02  2.6502E-02  1.2876E-02  4.3838E-03  1.3812E-03
  14   7.2100E-05  2.6695E-04  9.6063E-04  2.6967E-03  5.2921E-03  6.2422E-03  5.2924E-03  2.6987E-03  9.7212E-04  3.2522E-04
  15   1.7570E-05  6.1510E-05  2.1013E-04  5.6098E-04  1.0575E-03  1.2498E-03  1.0576E-03  5.6151E-04  2.1304E-04  7.5549E-05

 HEAD WILL BE SAVED ON UNIT 1100 AT END OF TIME STEP   22, STRESS PERIOD    2


  VOLUME BUDGET FOR ENTIRE MODEL AT END OF TIME STEP   22, STRESS PERIOD   2
  ---------------------------------------------------------------------------------------------------

     CUMULATIVE VOLUME      L**3       RATES FOR THIS TIME STEP      L**3/T          PACKAGE NAME    
     ------------------                 ------------------------                     ----------------

           IN:                                      IN:
           ---                                      ---
              STO-SS =          15.1474                STO-SS =       4.5508E-02     STORAGE                          
              STO-SY =       39900.5466                STO-SY =         119.7644     STORAGE                          
                 WEL =           0.0000                   WEL =           0.0000     WEL-1                            
                 DRN =           0.0000                   DRN =           0.0000     DRN-0                            
                 API =       44470.7932                   API =         187.2940     MAR                              
                 CHD =       2.0279E-08                   CHD =           0.0000     CHD_0                            

            TOTAL IN =       84386.4872              TOTAL IN =         307.1039

          OUT:                                     OUT:
          ----                                     ----
              STO-SS =          12.9347                STO-SS =       2.5063E-02     STORAGE                          
              STO-SY =       25104.6654                STO-SY =          49.3571     STORAGE                          
                 WEL =       59268.8870                   WEL =         257.7218     WEL-1                            
                 DRN =       5.8952E-05                   DRN =       3.0769E-07     DRN-0                            
                 API =           0.0000                   API =           0.0000     MAR                              
                 CHD =       2.0705E-08                   CHD =           0.0000     CHD_0                            

           TOTAL OUT =       84386.4872             TOTAL OUT =         307.1039

            IN - OUT =      -4.4628E-07              IN - OUT =      -3.0976E-09

 PERCENT DISCREPANCY =          -0.00     PERCENT DISCREPANCY =          -0.00




         TIME SUMMARY AT END OF TIME STEP   22 IN STRESS PERIOD    2
                    SECONDS     MINUTES      HOURS       DAYS        YEARS
                    -----------------------------------------------------------
   TIME STEP LENGTH 8.64000E+05  14400.      240.00      10.000     2.73785E-02
 STRESS PERIOD TIME 1.90080E+07 3.16800E+05  5280.0      220.00     0.60233    
         TOTAL TIME 1.90944E+07 3.18240E+05  5304.0      221.00     0.60507    


end timestep


start timestep kper="2" kstp="23" mode="normal"

 UBDSV1 SAVING           STO-SS ON UNIT   1099 AT TIME STEP     23, STRESS PERIOD      2
 UBDSV1 SAVING           STO-SY ON UNIT   1099 AT TIME STEP     23, STRESS PERIOD      2
 UBDSV1 SAVING     FLOW-JA-FACE ON UNIT   1099 AT TIME STEP     23, STRESS PERIOD      2
 UBDSV06 SAVING       DATA-SPDIS IN MODEL GWF              PACKAGE NPF             CONNECTED TO MODEL GWF              PACKAGE NPF              ON UNIT   1099 AT TIME STEP     23, STRESS PERIOD      2
 UBDSV06 SAVING              WEL IN MODEL GWF              PACKAGE GWF             CONNECTED TO MODEL GWF              PACKAGE WEL-1            ON UNIT   1099 AT TIME STEP     23, STRESS PERIOD      2
 UBDSV06 SAVING              DRN IN MODEL GWF              PACKAGE GWF             CONNECTED TO MODEL GWF              PACKAGE DRN-0            ON UNIT   1099 AT TIME STEP     23, STRESS PERIOD      2
 UBDSV06 SAVING              API IN MODEL GWF              PACKAGE GWF             CONNECTED TO MODEL GWF              PACKAGE MAR              ON UNIT   1099 AT TIME STEP     23, STRESS PERIOD      2
 UBDSV06 SAVING              CHD IN MODEL GWF              PACKAGE GWF             CONNECTED TO MODEL GWF              PACKAGE CHD_0            ON UNIT   1099 AT TIME STEP     23, STRESS PERIOD      2

    CALCULATED INTERCELL FLOW FOR PERIOD 2 STEP 23
(1,1,1): (1,1,2) 1.196409E-03 (1,2,1) 1.496338E-03
(1,1,2): (1,1,1) -1.196409E-03 (1,1,3) 3.586685E-03 (1,2,2) 4.809193E-03
(1,1,3): (1,1,2) -3.586685E-03 (1,1,4) 7.469172E-03 (1,2,3) 1.533317E-02
(1,1,4): (1,1,3) -7.469172E-03 (1,1,5) 9.582017E-03 (1,2,4) 3.877740E-02
(1,1,5): (1,1,4) -9.582017E-03 (1,1,6) 3.939895E-03 (1,2,5) 7.077722E-02
(1,1,6): (1,1,5) -3.939895E-03 (1,1,7) -3.935762E-03 (1,2,6) 8.318480E-02
(1,1,7): (1,1,6) 3.935762E-03 (1,1,8) -9.563522E-03 (1,2,7) 7.078633E-02
(1,1,8): (1,1,7) 9.563522E-03 (1,1,9) -7.383169E-03 (1,2,8) 3.882942E-02
(1,1,9): (1,1,8) 7.383169E-03 (1,1,10) -3.236624E-03 (1,2,9) 1.559587E-02
(1,1,10): (1,1,9) 3.236624E-03 (1,2,10) 5.981295E-03
(1,2,1): (1,1,1) -1.496338E-03 (1,2,2) 4.509254E-03 (1,3,1) 5.281084E-03
(1,2,2): (1,1,2) -4.809193E-03 (1,2,1) -4.509254E-03 (1,2,3) 1.411054E-02 (1,3,2) 1.778260E-02
(1,2,3): (1,1,3) -1.533317E-02 (1,2,2) -1.411054E-02 (1,2,4) 3.091156E-02 (1,3,3) 5.942341E-02
(1,2,4): (1,1,4) -3.877740E-02 (1,2,3) -3.091156E-02 (1,2,5) 4.157251E-02 (1,3,4) 0.158020
(1,2,5): (1,1,5) -7.077722E-02 (1,2,4) -4.157251E-02 (1,2,6) 1.633921E-02 (1,3,5) 0.301891
(1,2,6): (1,1,6) -8.318480E-02 (1,2,5) -1.633921E-02 (1,2,7) -1.632597E-02 (1,3,6) 0.352627
(1,2,7): (1,1,7) -7.078633E-02 (1,2,6) 1.632597E-02 (1,2,8) -4.151109E-02 (1,3,7) 0.301920
(1,2,8): (1,1,8) -3.882942E-02 (1,2,7) 4.151109E-02 (1,2,9) -3.061481E-02 (1,3,8) 0.158194
(1,2,9): (1,1,9) -1.559587E-02 (1,2,8) 3.061481E-02 (1,2,10) -1.285093E-02 (1,3,9) 6.032642E-02
(1,2,10): (1,1,10) -5.981295E-03 (1,2,9) 1.285093E-02 (1,3,10) 2.196127E-02
(1,3,1): (1,2,1) -5.281084E-03 (1,3,2) 1.701068E-02 (1,4,1) 1.364574E-02
(1,3,2): (1,2,2) -1.778260E-02 (1,3,1) -1.701068E-02 (1,3,3) 5.574982E-02 (1,4,2) 4.878353E-02
(1,3,3): (1,2,3) -5.942341E-02 (1,3,2) -5.574982E-02 (1,3,4) 0.129480 (1,4,3) 0.173914
(1,3,4): (1,2,4) -0.158020 (1,3,3) -0.129480 (1,3,5) 0.185277 (1,4,4) 0.499481
(1,3,5): (1,2,5) -0.301891 (1,3,4) -0.185277 (1,3,6) 6.693247E-02 (1,4,5) 1.03700
(1,3,6): (1,2,6) -0.352627 (1,3,5) -6.693247E-02 (1,3,7) -6.688945E-02 (1,4,6) 1.18606
(1,3,7): (1,2,7) -0.301920 (1,3,6) 6.688945E-02 (1,3,8) -0.185072 (1,4,7) 1.03707
(1,3,8): (1,2,8) -0.158194 (1,3,7) 0.185072 (1,3,9) -0.128453 (1,4,8) 0.499901
(1,3,9): (1,2,9) -6.032642E-02 (1,3,8) 0.128453 (1,3,10) -5.121259E-02 (1,4,9) 0.176173
(1,3,10): (1,2,10) -2.196127E-02 (1,3,9) 5.121259E-02 (1,4,10) 5.971009E-02
(1,4,1): (1,3,1) -1.364574E-02 (1,4,2) 5.214965E-02 (1,5,1) 2.273938E-02
(1,4,2): (1,3,2) -4.878353E-02 (1,4,1) -5.214965E-02 (1,4,3) 0.180889 (1,5,2) 8.791198E-02
(1,4,3): (1,3,3) -0.173914 (1,4,2) -0.180889 (1,4,4) 0.454904 (1,5,3) 0.345045
(1,4,4): (1,3,4) -0.499481 (1,4,3) -0.454904 (1,4,5) 0.721159 (1,5,4) 1.13602
(1,4,5): (1,3,5) -1.03700 (1,4,4) -0.721159 (1,4,6) 0.214605 (1,5,5) 2.86380
(1,4,6): (1,3,6) -1.18606 (1,4,5) -0.214605 (1,4,7) -0.214491 (1,5,6) 3.05327
(1,4,7): (1,3,7) -1.03707 (1,4,6) 0.214491 (1,4,8) -0.720603 (1,5,7) 2.86391
(1,4,8): (1,3,8) -0.499901 (1,4,7) 0.720603 (1,4,9) -0.452029 (1,5,8) 1.13667
(1,4,9): (1,3,9) -0.176173 (1,4,8) 0.452029 (1,4,10) -0.167666 (1,5,9) 0.348661
(1,4,10): (1,3,10) -5.971009E-02 (1,4,9) 0.167666 (1,5,10) 0.106362
(1,5,1): (1,4,1) -2.273938E-02 (1,5,2) 0.117341 (1,6,1) 9.570174E-03
(1,5,2): (1,4,2) -8.791198E-02 (1,5,1) -0.117341 (1,5,3) 0.438258 (1,6,2) 4.397761E-02
(1,5,3): (1,4,3) -0.345045 (1,5,2) -0.438258 (1,5,4) 1.24671 (1,6,3) 0.226377
(1,5,4): (1,4,4) -1.13602 (1,5,3) -1.24671 (1,5,5) 2.44233 (1,6,4) 1.17846
(1,5,5): (1,4,5) -2.86380 (1,5,4) -2.44233 (1,5,6) 0.399737 (1,6,5) 6.41751
(1,5,6): (1,4,6) -3.05327 (1,5,5) -0.399737 (1,5,7) -0.399510 (1,6,6) 5.21833
(1,5,7): (1,4,7) -2.86391 (1,5,6) 0.399510 (1,5,8) -2.44122 (1,6,7) 6.41757
(1,5,8): (1,4,8) -1.13667 (1,5,7) 2.44122 (1,5,9) -1.24082 (1,6,8) 1.17870
(1,5,9): (1,4,9) -0.348661 (1,5,8) 1.24082 (1,5,10) -0.410112 (1,6,9) 0.227773
(1,5,10): (1,4,10) -0.106362 (1,5,9) 0.410112 (1,6,10) 5.188775E-02
(1,6,1): (1,5,1) -9.570174E-03 (1,6,2) 0.151786 (1,7,1) -4.378724E-02
(1,6,2): (1,5,2) -4.397761E-02 (1,6,1) -0.151786 (1,6,3) 0.621366 (1,7,2) -0.197644
(1,6,3): (1,5,3) -0.226377 (1,6,2) -0.621366 (1,6,4) 2.20800 (1,7,3) -0.936903
(1,6,4): (1,5,4) -1.17846 (1,6,3) -2.20800 (1,6,5) 7.73766 (1,7,4) -4.04328
(1,6,5): (1,5,5) -6.41751 (1,6,4) -7.73766 (1,6,6) -0.746220 (1,7,5) -16.2688
(1,6,6): (1,5,6) -5.21833 (1,6,5) 0.746220 (1,6,7) 0.746504 (1,7,6) -28.6283
(1,6,7): (1,5,7) -6.41757 (1,6,6) -0.746504 (1,6,8) -7.73630 (1,7,7) -16.2690
(1,6,8): (1,5,8) -1.17870 (1,6,7) 7.73630 (1,6,9) -2.20087 (1,7,8) -4.04436
(1,6,9): (1,5,9) -0.227773 (1,6,8) 2.20087 (1,6,10) -0.586617 (1,7,9) -0.943303
(1,6,10): (1,5,10) -5.188775E-02 (1,6,9) 0.586617 (1,7,10) -0.234012
(1,7,1): (1,6,1) 4.378724E-02 (1,7,2) -2.000768E-03 (1,8,1) -3.762541E-02
(1,7,2): (1,6,2) 0.197644 (1,7,1) 2.000768E-03 (1,7,3) -0.115737 (1,8,2) -0.167313
(1,7,3): (1,6,3) 0.936903 (1,7,2) 0.115737 (1,7,4) -0.852228 (1,8,3) -0.799571
(1,7,4): (1,6,4) 4.04328 (1,7,3) 0.852228 (1,7,5) -3.79200 (1,8,4) -3.56395
(1,7,5): (1,6,5) 16.2688 (1,7,4) 3.79200 (1,7,6) -11.4973 (1,8,5) -14.9228
(1,7,6): (1,6,6) 28.6283 (1,7,5) 11.4973 (1,7,7) 11.4975 (1,8,6) -61.6233
(1,7,7): (1,6,7) 16.2690 (1,7,6) -11.4975 (1,7,8) 3.79242 (1,8,7) -14.9230
(1,7,8): (1,6,8) 4.04436 (1,7,7) -3.79242 (1,7,9) 0.853921 (1,8,8) -3.56488
(1,7,9): (1,6,9) 0.943303 (1,7,8) -0.853921 (1,7,10) 0.120335 (1,8,9) -0.805119
(1,7,10): (1,6,10) 0.234012 (1,7,9) -0.120335 (1,8,10) -0.198347
(1,8,1): (1,7,1) 3.762541E-02 (1,8,2) -0.131642 (1,9,1) 2.330953E-02
(1,8,2): (1,7,2) 0.167313 (1,8,1) 0.131642 (1,8,3) -0.747668 (1,9,2) 0.127554
(1,8,3): (1,7,3) 0.799571 (1,8,2) 0.747668 (1,8,4) -3.61808 (1,9,3) 0.698413
(1,8,4): (1,7,4) 3.56395 (1,8,3) 3.61808 (1,8,5) -15.1787 (1,9,4) 3.38736
(1,8,5): (1,7,5) 14.9228 (1,8,4) 15.1787 (1,8,6) -56.0948 (1,9,5) 14.7413
(1,8,6): (1,7,6) 61.6233 (1,8,5) 56.0948 (1,8,7) 56.0947 (1,9,6) 61.3581
(1,8,7): (1,7,7) 14.9230 (1,8,6) -56.0947 (1,8,8) 15.1783 (1,9,7) 14.7414
(1,8,8): (1,7,8) 3.56488 (1,8,7) -15.1783 (1,8,9) 3.61505 (1,9,8) 3.38773
(1,8,9): (1,7,9) 0.805119 (1,8,8) -3.61505 (1,8,10) 0.726633 (1,9,9) 0.701267
(1,8,10): (1,7,10) 0.198347 (1,8,9) -0.726633 (1,9,10) 0.147588
(1,9,1): (1,8,1) -2.330953E-02 (1,9,2) -2.739347E-02 (1,10,1) 3.617468E-02
(1,9,2): (1,8,2) -0.127554 (1,9,1) 2.739347E-02 (1,9,3) -0.176529 (1,10,2) 0.177785
(1,9,3): (1,8,3) -0.698413 (1,9,2) 0.176529 (1,9,4) -0.922992 (1,10,3) 0.894873
(1,9,4): (1,8,4) -3.38736 (1,9,3) 0.922992 (1,9,5) -3.77712 (1,10,4) 4.01617
(1,9,5): (1,8,5) -14.7413 (1,9,4) 3.77712 (1,9,6) -11.4822 (1,10,5) 16.4494
(1,9,6): (1,8,6) -61.3581 (1,9,5) 11.4822 (1,9,7) 11.4822 (1,10,6) 28.8426
(1,9,7): (1,8,7) -14.7414 (1,9,6) -11.4822 (1,9,8) 3.77707 (1,10,7) 16.4495
(1,9,8): (1,8,8) -3.38773 (1,9,7) -3.77707 (1,9,9) 0.922548 (1,10,8) 4.01691
(1,9,9): (1,8,9) -0.701267 (1,9,8) -0.922548 (1,9,10) 0.172814 (1,10,9) 0.899788
(1,9,10): (1,8,10) -0.147588 (1,9,9) -0.172814 (1,10,10) 0.208323
(1,10,1): (1,9,1) -3.617468E-02 (1,10,2) 0.114134 (1,11,1) -5.527710E-03
(1,10,2): (1,9,2) -0.177785 (1,10,1) -0.114134 (1,10,3) 0.538353 (1,11,2) -3.464702E-02
(1,10,3): (1,9,3) -0.894873 (1,10,2) -0.538353 (1,10,4) 2.15210 (1,11,3) -0.215131
(1,10,4): (1,9,4) -4.01617 (1,10,3) -2.15210 (1,10,5) 7.94837 (1,11,4) -1.22292
(1,10,5): (1,9,5) -16.4494 (1,10,4) -7.94837 (1,10,6) -0.722256 (1,11,5) -6.71516
(1,10,6): (1,9,6) -28.8426 (1,10,5) 0.722256 (1,10,7) 0.722378 (1,11,6) -5.57394
(1,10,7): (1,9,7) -16.4495 (1,10,6) -0.722378 (1,10,8) -7.94778 (1,11,7) -6.71518
(1,10,8): (1,9,8) -4.01691 (1,10,7) 7.94778 (1,10,9) -2.14831 (1,11,8) -1.22299
(1,10,9): (1,9,9) -0.899788 (1,10,8) 2.14831 (1,10,10) -0.516338 (1,11,9) -0.215736
(1,10,10): (1,9,10) -0.208323 (1,10,9) 0.516338 (1,11,10) -3.950275E-02
(1,11,1): (1,10,1) 5.527710E-03 (1,11,2) 8.499185E-02 (1,12,1) -1.434174E-02
(1,11,2): (1,10,2) 3.464702E-02 (1,11,1) -8.499185E-02 (1,11,3) 0.357293 (1,12,2) -6.476516E-02
(1,11,3): (1,10,3) 0.215131 (1,11,2) -0.357293 (1,11,4) 1.13549 (1,12,3) -0.288096
(1,11,4): (1,10,4) 1.22292 (1,11,3) -1.13549 (1,11,5) 2.40104 (1,12,4) -1.04761
(1,11,5): (1,10,5) 6.71516 (1,11,4) -2.40104 (1,11,6) 0.365321 (1,12,5) -2.80789
(1,11,6): (1,10,6) 5.57394 (1,11,5) -0.365321 (1,11,7) -0.365227 (1,12,6) -2.99885
(1,11,7): (1,10,7) 6.71518 (1,11,6) 0.365227 (1,11,8) -2.40051 (1,12,7) -2.80794
(1,11,8): (1,10,8) 1.22299 (1,11,7) 2.40051 (1,11,9) -1.13227 (1,12,8) -1.04792
(1,11,9): (1,10,9) 0.215736 (1,11,8) 1.13227 (1,11,10) -0.339583 (1,12,9) -0.290126
(1,11,10): (1,10,10) 3.950275E-02 (1,11,9) 0.339583 (1,12,10) -7.675756E-02
(1,12,1): (1,11,1) 1.434174E-02 (1,12,2) 3.455825E-02 (1,13,1) -7.851429E-03
(1,12,2): (1,11,2) 6.476516E-02 (1,12,1) -3.455825E-02 (1,12,3) 0.133810 (1,13,2) -3.223700E-02
(1,12,3): (1,11,3) 0.288096 (1,12,2) -0.133810 (1,12,4) 0.375328 (1,13,3) -0.129072
(1,12,4): (1,11,4) 1.04761 (1,12,3) -0.375328 (1,12,5) 0.647306 (1,13,4) -0.409103
(1,12,5): (1,11,5) 2.80789 (1,12,4) -0.647306 (1,12,6) 0.178759 (1,13,5) -0.909413
(1,12,6): (1,11,6) 2.99885 (1,12,5) -0.178759 (1,12,7) -0.178714 (1,13,6) -1.03921
(1,12,7): (1,11,7) 2.80794 (1,12,6) 0.178714 (1,12,8) -0.647056 (1,13,7) -0.909443
(1,12,8): (1,11,8) 1.04792 (1,12,7) 0.647056 (1,12,9) -0.373858 (1,13,8) -0.409295
(1,12,9): (1,11,9) 0.290126 (1,12,8) 0.373858 (1,12,10) -0.126109 (1,13,9) -0.130249
(1,12,10): (1,11,10) 7.675756E-02 (1,12,9) 0.126109 (1,13,10) -3.870316E-02
(1,13,1): (1,12,1) 7.851429E-03 (1,13,2) 1.017211E-02 (1,14,1) -2.739393E-03
(1,13,2): (1,12,2) 3.223700E-02 (1,13,1) -1.017211E-02 (1,13,3) 3.696973E-02 (1,14,2) -1.049280E-02
(1,13,3): (1,12,3) 0.129072 (1,13,2) -3.696973E-02 (1,13,4) 9.539153E-02 (1,14,3) -3.912189E-02
(1,13,4): (1,12,4) 0.409103 (1,13,3) -9.539153E-02 (1,13,5) 0.148269 (1,14,4) -0.114332
(1,13,5): (1,12,5) 0.909413 (1,13,4) -0.148269 (1,13,6) 5.004062E-02 (1,14,5) -0.233338
(1,13,6): (1,12,6) 1.03921 (1,13,5) -5.004062E-02 (1,13,7) -5.002491E-02 (1,14,6) -0.272587
(1,13,7): (1,12,7) 0.909443 (1,13,6) 5.002491E-02 (1,13,8) -0.148183 (1,14,7) -0.233349
(1,13,8): (1,12,8) 0.409295 (1,13,7) 0.148183 (1,13,9) -9.490954E-02 (1,14,8) -0.114406
(1,13,9): (1,12,9) 0.130249 (1,13,8) 9.490954E-02 (1,13,10) -3.456697E-02 (1,14,9) -3.955012E-02
(1,13,10): (1,12,10) 3.870316E-02 (1,13,9) 3.456697E-02 (1,14,10) -1.272091E-02
(1,14,1): (1,13,1) 2.739393E-03 (1,14,2) 2.418729E-03 (1,15,1) -7.042927E-04
(1,14,2): (1,13,2) 1.049280E-02 (1,14,1) -2.418729E-03 (1,14,3) 8.341257E-03 (1,15,2) -2.554737E-03
(1,14,3): (1,13,3) 3.912189E-02 (1,14,2) -8.341257E-03 (1,14,4) 2.019527E-02 (1,15,3) -9.030957E-03
(1,14,4): (1,13,4) 0.114332 (1,14,3) -2.019527E-02 (1,14,5) 2.936377E-02 (1,15,4) -2.496135E-02
(1,14,5): (1,13,5) 0.233338 (1,14,4) -2.936377E-02 (1,14,6) 1.087835E-02 (1,15,5) -4.844928E-02
(1,14,6): (1,13,6) 0.272587 (1,14,5) -1.087835E-02 (1,14,7) -1.087389E-02 (1,15,6) -5.703079E-02
(1,14,7): (1,13,7) 0.233349 (1,14,6) 1.087389E-02 (1,14,8) -2.934039E-02 (1,15,7) -4.845248E-02
(1,14,8): (1,13,8) 0.114406 (1,14,7) 2.934039E-02 (1,14,9) -2.006868E-02 (1,15,8) -2.498156E-02
(1,14,9): (1,13,9) 3.955012E-02 (1,14,8) 2.006868E-02 (1,14,10) -7.739093E-03 (1,15,9) -9.144829E-03
(1,14,10): (1,13,10) 1.272091E-02 (1,14,9) 7.739093E-03 (1,15,10) -3.121598E-03
(1,15,1): (1,14,1) 7.042927E-04 (1,15,2) 5.682876E-04
(1,15,2): (1,14,2) 2.554737E-03 (1,15,1) -5.682876E-04 (1,15,3) 1.865082E-03
(1,15,3): (1,14,3) 9.030957E-03 (1,15,2) -1.865082E-03 (1,15,4) 4.265632E-03
(1,15,4): (1,14,4) 2.496135E-02 (1,15,3) -4.265632E-03 (1,15,5) 5.880312E-03
(1,15,5): (1,14,5) 4.844928E-02 (1,15,4) -5.880312E-03 (1,15,6) 2.300795E-03
(1,15,6): (1,14,6) 5.703079E-02 (1,15,5) -2.300795E-03 (1,15,7) -2.299529E-03
(1,15,7): (1,14,7) 4.845248E-02 (1,15,6) 2.299529E-03 (1,15,8) -5.873951E-03
(1,15,8): (1,14,8) 2.498156E-02 (1,15,7) 5.873951E-03 (1,15,9) -4.232719E-03
(1,15,9): (1,14,9) 9.144829E-03 (1,15,8) 4.232719E-03 (1,15,10) -1.715947E-03
(1,15,10): (1,14,10) 3.121598E-03 (1,15,9) 1.715947E-03

 WEL PACKAGE (WEL-1) FLOW RATES   PERIOD      2   STEP       23
 ----------------------------------------------------------------------------------------
   NUMBER   CELLID                    RATE       NAME                                    
 ----------------------------------------------------------------------------------------
     1      (1,8,6)              -246.66376      WEL                                     
 ----------------------------------------------------------------------------------------




 DRN PACKAGE (DRN-0) FLOW RATES   PERIOD      2   STEP       23
 ----------------------------------------------------------------------------------------
   NUMBER   CELLID                    RATE       NAME                                    
 ----------------------------------------------------------------------------------------
     1      (1,1,1)               0.0000000      SURF                                    
     2      (1,1,2)               0.0000000      SURF                                    
     3      (1,1,3)               0.0000000      SURF                                    
     4      (1,1,4)               0.0000000      SURF                                    
     5      (1,1,5)               0.0000000      SURF                                    
     6      (1,1,6)               0.0000000      SURF                                    
     7      (1,1,7)               0.0000000      SURF                                    
     8      (1,1,8)               0.0000000      SURF                                    
     9      (1,1,9)               0.0000000      SURF                                    
     10     (1,1,10)              0.0000000      SURF                                    
     11     (1,2,1)               0.0000000      SURF                                    
     12     (1,2,2)               0.0000000      SURF                                    
     13     (1,2,3)               0.0000000      SURF                                    
     14     (1,2,4)               0.0000000      SURF                                    
     15     (1,2,5)               0.0000000      SURF                                    
     16     (1,2,6)               0.0000000      SURF                                    
     17     (1,2,7)               0.0000000      SURF                                    
     18     (1,2,8)               0.0000000      SURF                                    
     19     (1,2,9)               0.0000000      SURF                                    
     20     (1,2,10)              0.0000000      SURF                                    
     21     (1,3,1)               0.0000000      SURF                                    
     22     (1,3,2)               0.0000000      SURF                                    
     23     (1,3,3)               0.0000000      SURF                                    
     24     (1,3,4)               0.0000000      SURF                                    
     25     (1,3,5)               0.0000000      SURF                                    
     26     (1,3,6)               0.0000000      SURF                                    
     27     (1,3,7)               0.0000000      SURF                                    
     28     (1,3,8)               0.0000000      SURF                                    
     29     (1,3,9)               0.0000000      SURF                                    
     30     (1,3,10)              0.0000000      SURF                                    
     31     (1,4,1)               0.0000000      SURF                                    
     32     (1,4,2)               0.0000000      SURF                                    
     33     (1,4,3)               0.0000000      SURF                                    
     34     (1,4,4)               0.0000000      SURF                                    
     35     (1,4,5)               0.0000000      SURF                                    
     36     (1,4,6)               0.0000000      SURF                                    
     37     (1,4,7)               0.0000000      SURF                                    
     38     (1,4,8)               0.0000000      SURF                                    
     39     (1,4,9)               0.0000000      SURF                                    
     40     (1,4,10)              0.0000000      SURF                                    
     41     (1,5,1)               0.0000000      SURF                                    
     42     (1,5,2)               0.0000000      SURF                                    
     43     (1,5,3)               0.0000000      SURF                                    
     44     (1,5,4)               0.0000000      SURF                                    
     45     (1,5,5)               0.0000000      SURF                                    
     46     (1,5,6)               0.0000000      SURF                                    
     47     (1,5,7)               0.0000000      SURF                                    
     48     (1,5,8)               0.0000000      SURF                                    
     49     (1,5,9)               0.0000000      SURF                                    
     50     (1,5,10)              0.0000000      SURF                                    
     51     (1,6,1)               0.0000000      SURF                                    
     52     (1,6,2)               0.0000000      SURF                                    
     53     (1,6,3)               0.0000000      SURF                                    
     54     (1,6,4)               0.0000000      SURF                                    
     55     (1,6,5)               0.0000000      SURF                                    
     56     (1,6,6)               0.0000000      SURF                                    
     57     (1,6,7)              -9.61881597E-09 SURF                                    
     58     (1,6,8)               0.0000000      SURF                                    
     59     (1,6,9)               0.0000000      SURF                                    
     60     (1,6,10)              0.0000000      SURF                                    
     61     (1,7,1)               0.0000000      SURF                                    
     62     (1,7,2)               0.0000000      SURF                                    
     63     (1,7,3)               0.0000000      SURF                                    
     64     (1,7,4)               0.0000000      SURF                                    
     65     (1,7,5)               0.0000000      SURF                                    
     66     (1,7,6)               0.0000000      SURF                                    
     67     (1,7,7)               0.0000000      SURF                                    
     68     (1,7,8)               0.0000000      SURF                                    
     69     (1,7,9)               0.0000000      SURF                                    
     70     (1,7,10)              0.0000000      SURF                                    
     71     (1,8,1)               0.0000000      SURF                                    
     72     (1,8,2)               0.0000000      SURF                                    
     73     (1,8,3)               0.0000000      SURF                                    
     74     (1,8,4)               0.0000000      SURF                                    
     75     (1,8,5)               0.0000000      SURF                                    
     76     (1,8,6)               0.0000000      SURF                                    
     77     (1,8,7)               0.0000000      SURF                                    
     78     (1,8,8)               0.0000000      SURF                                    
     79     (1,8,9)               0.0000000      SURF                                    
     80     (1,8,10)              0.0000000      SURF                                    
     81     (1,9,1)               0.0000000      SURF                                    
     82     (1,9,2)               0.0000000      SURF                                    
     83     (1,9,3)               0.0000000      SURF                                    
     84     (1,9,4)               0.0000000      SURF                                    
     85     (1,9,5)               0.0000000      SURF                                    
     86     (1,9,6)               0.0000000      SURF                                    
     87     (1,9,7)               0.0000000      SURF                                    
     88     (1,9,8)               0.0000000      SURF                                    
     89     (1,9,9)               0.0000000      SURF                                    
     90     (1,9,10)              0.0000000      SURF                                    
     91     (1,10,1)              0.0000000      SURF                                    
     92     (1,10,2)              0.0000000      SURF                                    
     93     (1,10,3)              0.0000000      SURF                                    
     94     (1,10,4)              0.0000000      SURF                                    
     95     (1,10,5)              0.0000000      SURF                                    
     96     (1,10,6)              0.0000000      SURF                                    
     97     (1,10,7)             -4.66694473E-07 SURF                                    
     98     (1,10,8)              0.0000000      SURF                                    
     99     (1,10,9)              0.0000000      SURF                                    
    100     (1,10,10)             0.0000000      SURF                                    
    101     (1,11,1)              0.0000000      SURF                                    
    102     (1,11,2)              0.0000000      SURF                                    
    103     (1,11,3)              0.0000000      SURF                                    
    104     (1,11,4)              0.0000000      SURF                                    
    105     (1,11,5)              0.0000000      SURF                                    
    106     (1,11,6)              0.0000000      SURF                                    
    107     (1,11,7)              0.0000000      SURF                                    
    108     (1,11,8)              0.0000000      SURF                                    
    109     (1,11,9)              0.0000000      SURF                                    
    110     (1,11,10)             0.0000000      SURF                                    
    111     (1,12,1)              0.0000000      SURF                                    
    112     (1,12,2)              0.0000000      SURF                                    
    113     (1,12,3)              0.0000000      SURF                                    
    114     (1,12,4)              0.0000000      SURF                                    
    115     (1,12,5)              0.0000000      SURF                                    
    116     (1,12,6)              0.0000000      SURF                                    
    117     (1,12,7)              0.0000000      SURF                                    
    118     (1,12,8)              0.0000000      SURF                                    
    119     (1,12,9)              0.0000000      SURF                                    
    120     (1,12,10)             0.0000000      SURF                                    
    121     (1,13,1)              0.0000000      SURF                                    
    122     (1,13,2)              0.0000000      SURF                                    
    123     (1,13,3)              0.0000000      SURF                                    
    124     (1,13,4)              0.0000000      SURF                                    
    125     (1,13,5)              0.0000000      SURF                                    
    126     (1,13,6)              0.0000000      SURF                                    
    127     (1,13,7)              0.0000000      SURF                                    
    128     (1,13,8)              0.0000000      SURF                                    
    129     (1,13,9)              0.0000000      SURF                                    
    130     (1,13,10)             0.0000000      SURF                                    
    131     (1,14,1)              0.0000000      SURF                                    
    132     (1,14,2)              0.0000000      SURF                                    
    133     (1,14,3)              0.0000000      SURF                                    
    134     (1,14,4)              0.0000000      SURF                                    
    135     (1,14,5)              0.0000000      SURF                                    
    136     (1,14,6)              0.0000000      SURF                                    
    137     (1,14,7)              0.0000000      SURF                                    
    138     (1,14,8)              0.0000000      SURF                                    
    139     (1,14,9)              0.0000000      SURF                                    
    140     (1,14,10)             0.0000000      SURF                                    
    141     (1,15,1)              0.0000000      SURF                                    
    142     (1,15,2)              0.0000000      SURF                                    
    143     (1,15,3)              0.0000000      SURF                                    
    144     (1,15,4)              0.0000000      SURF                                    
    145     (1,15,5)              0.0000000      SURF                                    
    146     (1,15,6)              0.0000000      SURF                                    
    147     (1,15,7)              0.0000000      SURF                                    
    148     (1,15,8)              0.0000000      SURF                                    
    149     (1,15,9)              0.0000000      SURF                                    
    150     (1,15,10)             0.0000000      SURF                                    
 ----------------------------------------------------------------------------------------




 API PACKAGE (MAR) FLOW RATES   PERIOD      2   STEP       23
 -----------------------------------------------
   NUMBER   CELLID                    RATE      
 -----------------------------------------------
     1      (1,6,5)               31.169411     
     2      (1,6,6)               31.169411     
     3      (1,6,7)               31.169411     
     4      (1,10,5)              31.834846     
     5      (1,10,6)              31.834846     
     6      (1,10,7)              31.834846     
 -----------------------------------------------



1
  HEAD IN LAYER   1 AT END OF TIME STEP  23 IN STRESS PERIOD    2
  ---------------------------------------------------------------------------

            1           2           3           4           5           6           7           8           9          10
 ........................................................................................................................
   1   5.9477E-05  1.7912E-04  5.3776E-04  1.2846E-03  2.2426E-03  2.6365E-03  2.2430E-03  1.2868E-03  5.4863E-04  2.2498E-04
   2   2.0911E-04  6.6000E-04  2.0708E-03  5.1603E-03  9.3137E-03  1.0946E-02  9.3150E-03  5.1678E-03  2.1079E-03  8.2306E-04
   3   7.3718E-04  2.4378E-03  8.0083E-03  2.0929E-02  3.9384E-02  4.6047E-02  3.9389E-02  2.0954E-02  8.1356E-03  3.0185E-03
   4   2.1015E-03  7.3126E-03  2.5356E-02  7.0528E-02  0.1416      0.1628      0.1416      7.0594E-02  2.5708E-02  8.9842E-03
   5   4.3744E-03  1.6090E-02  5.9656E-02  0.1821      0.4166      0.4548      0.4166      0.1822      6.0365E-02  1.9600E-02
   6   5.3309E-03  2.0478E-02  8.2109E-02  0.2965       1.000      0.9321       1.000      0.2967      8.2955E-02  2.4775E-02
   7   9.5452E-04  7.5447E-04 -1.0818E-02 -9.6133E-02 -0.4790      -1.687     -0.4790     -9.6082E-02 -1.0600E-02  1.4321E-03
   8  -2.8077E-03 -1.5976E-02 -9.0862E-02 -0.4560      -2.046      -9.099      -2.046     -0.4560     -9.1197E-02 -1.8400E-02
   9  -4.7659E-04 -3.2161E-03 -2.0875E-02 -0.1134     -0.4954      -1.703     -0.4954     -0.1134     -2.0923E-02 -3.6355E-03
  10   3.1397E-03  1.4537E-02  6.8008E-02  0.2774       1.000      0.9343       1.000      0.2775      6.8444E-02  1.7161E-02
  11   2.5871E-03  1.1077E-02  4.6640E-02  0.1584      0.3895      0.4246      0.3895      0.1585      4.7017E-02  1.3218E-02
  12   1.1533E-03  4.6076E-03  1.7965E-02  5.5291E-02  0.1193      0.1369      0.1193      5.5320E-02  1.8140E-02  5.5519E-03
  13   3.6829E-04  1.3854E-03  5.0805E-03  1.4606E-02  2.9389E-02  3.4376E-02  2.9391E-02  1.4616E-02  5.1387E-03  1.6837E-03
  14   9.4358E-05  3.3622E-04  1.1703E-03  3.1891E-03  6.1237E-03  7.2108E-03  6.1242E-03  3.1919E-03  1.1857E-03  4.1187E-04
  15   2.3930E-05  8.0758E-05  2.6726E-04  6.9379E-04  1.2817E-03  1.5118E-03  1.2819E-03  6.9456E-04  2.7131E-04  9.9725E-05

 HEAD WILL BE SAVED ON UNIT 1100 AT END OF TIME STEP   23, STRESS PERIOD    2


  VOLUME BUDGET FOR ENTIRE MODEL AT END OF TIME STEP   23, STRESS PERIOD   2
  ---------------------------------------------------------------------------------------------------

     CUMULATIVE VOLUME      L**3       RATES FOR THIS TIME STEP      L**3/T          PACKAGE NAME    
     ------------------                 ------------------------                     ----------------

           IN:                                      IN:
           ---                                      ---
              STO-SS =          15.5756                STO-SS =       4.2820E-02     STORAGE                          
              STO-SY =       40954.0148                STO-SY =         105.3468     STORAGE                          
                 WEL =           0.0000                   WEL =           0.0000     WEL-1                            
                 DRN =           0.0000                   DRN =           0.0000     DRN-0                            
                 API =       46360.9209                   API =         189.0128     MAR                              
                 CHD =       2.0279E-08                   CHD =           0.0000     CHD_0                            

            TOTAL IN =       87330.5113              TOTAL IN =         294.4024

          OUT:                                     OUT:
          ----                                     ----
              STO-SS =          13.1770                STO-SS =       2.4225E-02     STORAGE                          
              STO-SY =       25581.8097                STO-SY =          47.7144     STORAGE                          
                 WEL =       61735.5246                   WEL =         246.6638     WEL-1                            
                 DRN =       6.3715E-05                   DRN =       4.7631E-07     DRN-0                            
                 API =           0.0000                   API =           0.0000     MAR                              
                 CHD =       2.0705E-08                   CHD =           0.0000     CHD_0                            

           TOTAL OUT =       87330.5113             TOTAL OUT =         294.4024

            IN - OUT =      -4.7882E-07              IN - OUT =      -3.2547E-09

 PERCENT DISCREPANCY =          -0.00     PERCENT DISCREPANCY =          -0.00




         TIME SUMMARY AT END OF TIME STEP   23 IN STRESS PERIOD    2
                    SECONDS     MINUTES      HOURS       DAYS        YEARS
                    -----------------------------------------------------------
   TIME STEP LENGTH 8.64000E+05  14400.      240.00      10.000     2.73785E-02
 STRESS PERIOD TIME 1.98720E+07 3.31200E+05  5520.0      230.00     0.62971    
         TOTAL TIME 1.99584E+07 3.32640E+05  5544.0      231.00     0.63244    


end timestep


start timestep kper="2" kstp="24" mode="normal"

 UBDSV1 SAVING           STO-SS ON UNIT   1099 AT TIME STEP     24, STRESS PERIOD      2
 UBDSV1 SAVING           STO-SY ON UNIT   1099 AT TIME STEP     24, STRESS PERIOD      2
 UBDSV1 SAVING     FLOW-JA-FACE ON UNIT   1099 AT TIME STEP     24, STRESS PERIOD      2
 UBDSV06 SAVING       DATA-SPDIS IN MODEL GWF              PACKAGE NPF             CONNECTED TO MODEL GWF              PACKAGE NPF              ON UNIT   1099 AT TIME STEP     24, STRESS PERIOD      2
 UBDSV06 SAVING              WEL IN MODEL GWF              PACKAGE GWF             CONNECTED TO MODEL GWF              PACKAGE WEL-1            ON UNIT   1099 AT TIME STEP     24, STRESS PERIOD      2
 UBDSV06 SAVING              DRN IN MODEL GWF              PACKAGE GWF             CONNECTED TO MODEL GWF              PACKAGE DRN-0            ON UNIT   1099 AT TIME STEP     24, STRESS PERIOD      2
 UBDSV06 SAVING              API IN MODEL GWF              PACKAGE GWF             CONNECTED TO MODEL GWF              PACKAGE MAR              ON UNIT   1099 AT TIME STEP     24, STRESS PERIOD      2
 UBDSV06 SAVING              CHD IN MODEL GWF              PACKAGE GWF             CONNECTED TO MODEL GWF              PACKAGE CHD_0            ON UNIT   1099 AT TIME STEP     24, STRESS PERIOD      2

    CALCULATED INTERCELL FLOW FOR PERIOD 2 STEP 24
(1,1,1): (1,1,2) 1.455945E-03 (1,2,1) 1.818080E-03
(1,1,2): (1,1,1) -1.455945E-03 (1,1,3) 4.261464E-03 (1,2,2) 5.661598E-03
(1,1,3): (1,1,2) -4.261464E-03 (1,1,4) 8.654305E-03 (1,2,3) 1.757495E-02
(1,1,4): (1,1,3) -8.654305E-03 (1,1,5) 1.088075E-02 (1,2,4) 4.344888E-02
(1,1,5): (1,1,4) -1.088075E-02 (1,1,6) 4.483914E-03 (1,2,5) 7.804623E-02
(1,1,6): (1,1,5) -4.483914E-03 (1,1,7) -4.478239E-03 (1,2,6) 9.149082E-02
(1,1,7): (1,1,6) 4.478239E-03 (1,1,8) -1.085616E-02 (1,2,7) 7.805818E-02
(1,1,8): (1,1,7) 1.085616E-02 (1,1,9) -8.543265E-03 (1,2,8) 4.351531E-02
(1,1,9): (1,1,8) 8.543265E-03 (1,1,10) -3.822615E-03 (1,2,9) 1.790092E-02
(1,1,10): (1,1,9) 3.822615E-03 (1,2,10) 7.074767E-03
(1,2,1): (1,1,1) -1.818080E-03 (1,2,2) 5.299449E-03 (1,3,1) 6.230415E-03
(1,2,2): (1,1,2) -5.661598E-03 (1,2,1) -5.299449E-03 (1,2,3) 1.617465E-02 (1,3,2) 2.030758E-02
(1,2,3): (1,1,3) -1.757495E-02 (1,2,2) -1.617465E-02 (1,2,4) 3.452592E-02 (1,3,3) 6.602844E-02
(1,2,4): (1,1,4) -4.344888E-02 (1,2,3) -3.452592E-02 (1,2,5) 4.546686E-02 (1,3,4) 0.171551
(1,2,5): (1,1,5) -7.804623E-02 (1,2,4) -4.546686E-02 (1,2,6) 1.791865E-02 (1,3,5) 0.322393
(1,2,6): (1,1,6) -9.149082E-02 (1,2,5) -1.791865E-02 (1,2,7) -1.790102E-02 (1,3,6) 0.375634
(1,2,7): (1,1,7) -7.805818E-02 (1,2,6) 1.790102E-02 (1,2,8) -4.538777E-02 (1,3,7) 0.322431
(1,2,8): (1,1,8) -4.351531E-02 (1,2,7) 4.538777E-02 (1,2,9) -3.415527E-02 (1,3,8) 0.171767
(1,2,9): (1,1,9) -1.790092E-02 (1,2,8) 3.415527E-02 (1,2,10) -1.464841E-02 (1,3,9) 6.711764E-02
(1,2,10): (1,1,10) -7.074767E-03 (1,2,9) 1.464841E-02 (1,3,10) 2.520001E-02
(1,3,1): (1,2,1) -6.230415E-03 (1,3,2) 1.937649E-02 (1,4,1) 1.555863E-02
(1,3,2): (1,2,2) -2.030758E-02 (1,3,1) -1.937649E-02 (1,3,3) 6.189363E-02 (1,4,2) 5.380876E-02
(1,3,3): (1,2,3) -6.602844E-02 (1,3,2) -6.189363E-02 (1,3,4) 0.140015 (1,4,3) 0.186642
(1,3,4): (1,2,4) -0.171551 (1,3,3) -0.140015 (1,3,5) 0.196120 (1,4,4) 0.523979
(1,3,5): (1,2,5) -0.322393 (1,3,4) -0.196120 (1,3,6) 7.100055E-02 (1,4,5) 1.07096
(1,3,6): (1,2,6) -0.375634 (1,3,5) -7.100055E-02 (1,3,7) -7.094486E-02 (1,4,6) 1.22156
(1,3,7): (1,2,7) -0.322431 (1,3,6) 7.094486E-02 (1,3,8) -0.195863 (1,4,7) 1.07104
(1,3,8): (1,2,8) -0.171767 (1,3,7) 0.195863 (1,3,9) -0.138770 (1,4,8) 0.524485
(1,3,9): (1,2,9) -6.711764E-02 (1,3,8) 0.138770 (1,3,10) -5.656163E-02 (1,4,9) 0.189278
(1,3,10): (1,2,10) -2.520001E-02 (1,3,9) 5.656163E-02 (1,4,10) 6.617506E-02
(1,4,1): (1,3,1) -1.555863E-02 (1,4,2) 5.762807E-02 (1,5,1) 2.489387E-02
(1,4,2): (1,3,2) -5.380876E-02 (1,4,1) -5.762807E-02 (1,4,3) 0.194737 (1,5,2) 9.310466E-02
(1,4,3): (1,3,3) -0.186642 (1,4,2) -0.194737 (1,4,4) 0.477198 (1,5,3) 0.356115
(1,4,4): (1,3,4) -0.523979 (1,4,3) -0.477198 (1,4,5) 0.741358 (1,5,4) 1.15053
(1,4,5): (1,3,5) -1.07096 (1,4,4) -0.741358 (1,4,6) 0.220167 (1,5,5) 2.87218
(1,4,6): (1,3,6) -1.22156 (1,4,5) -0.220167 (1,4,7) -0.220023 (1,5,6) 3.04833
(1,4,7): (1,3,7) -1.07104 (1,4,6) 0.220023 (1,4,8) -0.740681 (1,5,7) 2.87231
(1,4,8): (1,3,8) -0.524485 (1,4,7) 0.740681 (1,4,9) -0.473811 (1,5,8) 1.15129
(1,4,9): (1,3,9) -0.189278 (1,4,8) 0.473811 (1,4,10) -0.179653 (1,5,9) 0.360170
(1,4,10): (1,3,10) -6.617506E-02 (1,4,9) 0.179653 (1,5,10) 0.113157
(1,5,1): (1,4,1) -2.489387E-02 (1,5,2) 0.125861 (1,6,1) 9.061283E-03
(1,5,2): (1,4,2) -9.310466E-02 (1,5,1) -0.125861 (1,5,3) 0.458012 (1,6,2) 4.083805E-02
(1,5,3): (1,4,3) -0.356115 (1,5,2) -0.458012 (1,5,4) 1.27254 (1,6,3) 0.211363
(1,5,4): (1,4,4) -1.15053 (1,5,3) -1.27254 (1,5,5) 2.45652 (1,6,4) 1.12969
(1,5,5): (1,4,5) -2.87218 (1,5,4) -2.45652 (1,5,6) 0.392298 (1,6,5) 6.34028
(1,5,6): (1,4,6) -3.04833 (1,5,5) -0.392298 (1,5,7) -0.392021 (1,6,6) 5.08966
(1,5,7): (1,4,7) -2.87231 (1,5,6) 0.392021 (1,5,8) -2.45520 (1,6,7) 6.34034
(1,5,8): (1,4,8) -1.15129 (1,5,7) 2.45520 (1,5,9) -1.26580 (1,6,8) 1.12992
(1,5,9): (1,4,9) -0.360170 (1,5,8) 1.26580 (1,5,10) -0.426828 (1,6,9) 0.212712
(1,5,10): (1,4,10) -0.113157 (1,5,9) 0.426828 (1,6,10) 4.827544E-02
(1,6,1): (1,5,1) -9.061283E-03 (1,6,2) 0.157675 (1,7,1) -4.877155E-02
(1,6,2): (1,5,2) -4.083805E-02 (1,6,1) -0.157675 (1,6,3) 0.629236 (1,7,2) -0.213622
(1,6,3): (1,5,3) -0.211363 (1,6,2) -0.629236 (1,6,4) 2.20009 (1,7,3) -0.988481
(1,6,4): (1,5,4) -1.12969 (1,6,3) -2.20009 (1,6,5) 7.72590 (1,7,4) -4.18312
(1,6,5): (1,5,5) -6.34028 (1,6,4) -7.72590 (1,6,6) -0.804070 (1,7,5) -16.6039
(1,6,6): (1,5,6) -5.08966 (1,6,5) 0.804070 (1,6,7) 0.804407 (1,7,6) -29.0454
(1,6,7): (1,5,7) -6.34034 (1,6,6) -0.804407 (1,6,8) -7.72433 (1,7,7) -16.6041
(1,6,8): (1,5,8) -1.12992 (1,6,7) 7.72433 (1,6,9) -2.19215 (1,7,8) -4.18438
(1,6,9): (1,5,9) -0.212712 (1,6,8) 2.19215 (1,6,10) -0.591876 (1,7,9) -0.995771
(1,6,10): (1,5,10) -4.827544E-02 (1,6,9) 0.591876 (1,7,10) -0.253898
(1,7,1): (1,6,1) 4.877155E-02 (1,7,2) -7.084055E-03 (1,8,1) -4.148003E-02
(1,7,2): (1,6,2) 0.213622 (1,7,1) 7.084055E-03 (1,7,3) -0.143095 (1,8,2) -0.179110
(1,7,3): (1,6,3) 0.988481 (1,7,2) 0.143095 (1,7,4) -0.944131 (1,8,3) -0.836498
(1,7,4): (1,6,4) 4.18312 (1,7,3) 0.944131 (1,7,5) -3.96517 (1,8,4) -3.65822
(1,7,5): (1,6,5) 16.6039 (1,7,4) 3.96517 (1,7,6) -11.5956 (1,8,5) -15.0693
(1,7,6): (1,6,6) 29.0454 (1,7,5) 11.5956 (1,7,7) 11.5957 (1,8,6) -61.1791
(1,7,7): (1,6,7) 16.6041 (1,7,6) -11.5957 (1,7,8) 3.96565 (1,8,7) -15.0695
(1,7,8): (1,6,8) 4.18438 (1,7,7) -3.96565 (1,7,9) 0.945922 (1,8,8) -3.65930
(1,7,9): (1,6,9) 0.995771 (1,7,8) -0.945922 (1,7,10) 0.147274 (1,8,9) -0.842750
(1,7,10): (1,6,10) 0.253898 (1,7,9) -0.147274 (1,8,10) -0.213114
(1,8,1): (1,7,1) 4.148003E-02 (1,8,2) -0.144667 (1,9,1) 2.627047E-02
(1,8,2): (1,7,2) 0.179110 (1,8,1) 0.144667 (1,8,3) -0.800246 (1,9,2) 0.138748
(1,8,3): (1,7,3) 0.836498 (1,8,2) 0.800246 (1,8,4) -3.76893 (1,9,3) 0.737996
(1,8,4): (1,7,4) 3.65822 (1,8,3) 3.76893 (1,8,5) -15.4140 (1,9,4) 3.49296
(1,8,5): (1,7,5) 15.0693 (1,8,4) 15.4140 (1,8,6) -55.5784 (1,9,5) 14.9058
(1,8,6): (1,7,6) 61.1791 (1,8,5) 55.5784 (1,8,7) 55.5784 (1,9,6) 60.9457
(1,8,7): (1,7,7) 15.0695 (1,8,6) -55.5784 (1,8,8) 15.4135 (1,9,7) 14.9058
(1,8,8): (1,7,8) 3.65930 (1,8,7) -15.4135 (1,8,9) 3.76542 (1,9,8) 3.49340
(1,8,9): (1,7,9) 0.842750 (1,8,8) -3.76542 (1,8,10) 0.776494 (1,9,9) 0.741304
(1,8,10): (1,7,10) 0.213114 (1,8,9) -0.776494 (1,9,10) 0.161202
(1,9,1): (1,8,1) -2.627047E-02 (1,9,2) -3.218220E-02 (1,10,1) 4.079262E-02
(1,9,2): (1,8,2) -0.138748 (1,9,1) 3.218220E-02 (1,9,3) -0.200627 (1,10,2) 0.193700
(1,9,3): (1,8,3) -0.737996 (1,9,2) 0.200627 (1,9,4) -1.00644 (1,10,3) 0.947736
(1,9,4): (1,8,4) -3.49296 (1,9,3) 1.00644 (1,9,5) -3.94537 (1,10,4) 4.15650
(1,9,5): (1,8,5) -14.9058 (1,9,4) 3.94537 (1,9,6) -11.5788 (1,10,5) 16.7667
(1,9,6): (1,8,6) -60.9457 (1,9,5) 11.5788 (1,9,7) 11.5788 (1,10,6) 29.2405
(1,9,7): (1,8,7) -14.9058 (1,9,6) -11.5788 (1,9,8) 3.94532 (1,10,7) 16.7668
(1,9,8): (1,8,8) -3.49340 (1,9,7) -3.94532 (1,9,9) 1.00592 (1,10,8) 4.15739
(1,9,9): (1,8,9) -0.741304 (1,9,8) -1.00592 (1,9,10) 0.196189 (1,10,9) 0.953424
(1,9,10): (1,8,10) -0.161202 (1,9,9) -0.196189 (1,10,10) 0.227936
(1,10,1): (1,9,1) -4.079262E-02 (1,10,2) 0.120624 (1,11,1) -5.146138E-03
(1,10,2): (1,9,2) -0.193700 (1,10,1) -0.120624 (1,10,3) 0.550865 (1,11,2) -3.242292E-02
(1,10,3): (1,9,3) -0.947736 (1,10,2) -0.550865 (1,10,4) 2.15201 (1,11,3) -0.203053
(1,10,4): (1,9,4) -4.15650 (1,10,3) -2.15201 (1,10,5) 7.92418 (1,11,4) -1.17604
(1,10,5): (1,9,5) -16.7667 (1,10,4) -7.92418 (1,10,6) -0.778234 (1,11,5) -6.61988
(1,10,6): (1,9,6) -29.2405 (1,10,5) 0.778234 (1,10,7) 0.778379 (1,11,6) -5.42348
(1,10,7): (1,9,7) -16.7668 (1,10,6) -0.778379 (1,10,8) -7.92346 (1,11,7) -6.61991
(1,10,8): (1,9,8) -4.15739 (1,10,7) 7.92346 (1,10,9) -2.14766 (1,11,8) -1.17610
(1,10,9): (1,9,9) -0.953424 (1,10,8) 2.14766 (1,10,10) -0.526636 (1,11,9) -0.203610
(1,10,10): (1,9,10) -0.227936 (1,10,9) 0.526636 (1,11,10) -3.694902E-02
(1,11,1): (1,10,1) 5.146138E-03 (1,11,2) 9.332352E-02 (1,12,1) -1.614743E-02
(1,11,2): (1,10,2) 3.242292E-02 (1,11,1) -9.332352E-02 (1,11,3) 0.379650 (1,12,2) -7.012651E-02
(1,11,3): (1,10,3) 0.203053 (1,11,2) -0.379650 (1,11,4) 1.17008 (1,12,3) -0.302160
(1,11,4): (1,10,4) 1.17604 (1,11,3) -1.17008 (1,11,5) 2.42255 (1,12,4) -1.07120
(1,11,5): (1,10,5) 6.61988 (1,11,4) -2.42255 (1,11,6) 0.363312 (1,12,5) -2.82793
(1,11,6): (1,10,6) 5.42348 (1,11,5) -0.363312 (1,11,7) -0.363192 (1,12,6) -3.00847
(1,11,7): (1,10,7) 6.61991 (1,11,6) 0.363192 (1,11,8) -2.42190 (1,12,7) -2.82799
(1,11,8): (1,10,8) 1.17610 (1,11,7) 2.42190 (1,11,9) -1.16627 (1,12,8) -1.07158
(1,11,9): (1,10,9) 0.203610 (1,11,8) 1.16627 (1,11,10) -0.359444 (1,12,9) -0.304515
(1,11,10): (1,10,10) 3.694902E-02 (1,11,9) 0.359444 (1,12,10) -8.353393E-02
(1,12,1): (1,11,1) 1.614743E-02 (1,12,2) 3.933195E-02 (1,13,1) -9.266578E-03
(1,12,2): (1,11,2) 7.012651E-02 (1,12,1) -3.933195E-02 (1,12,3) 0.147439 (1,13,2) -3.659818E-02
(1,12,3): (1,11,3) 0.302160 (1,12,2) -0.147439 (1,12,4) 0.400301 (1,13,3) -0.141765
(1,12,4): (1,11,4) 1.07120 (1,12,3) -0.400301 (1,12,5) 0.672312 (1,13,4) -0.436588
(1,12,5): (1,11,5) 2.82793 (1,12,4) -0.672312 (1,12,6) 0.186931 (1,13,5) -0.950562
(1,12,6): (1,11,6) 3.00847 (1,12,5) -0.186931 (1,12,7) -0.186872 (1,13,6) -1.08418
(1,12,7): (1,11,7) 2.82799 (1,12,6) 0.186872 (1,12,8) -0.671995 (1,13,7) -0.950600
(1,12,8): (1,11,8) 1.07158 (1,12,7) 0.671995 (1,12,9) -0.398499 (1,13,8) -0.436830
(1,12,9): (1,11,9) 0.304515 (1,12,8) 0.398499 (1,12,10) -0.138343 (1,13,9) -0.143194
(1,12,10): (1,11,10) 8.353393E-02 (1,12,9) 0.138343 (1,13,10) -4.417346E-02
(1,13,1): (1,12,1) 9.266578E-03 (1,13,2) 1.199960E-02 (1,14,1) -3.362978E-03
(1,13,2): (1,12,2) 3.659818E-02 (1,13,1) -1.199960E-02 (1,13,3) 4.226573E-02 (1,14,2) -1.240463E-02
(1,13,3): (1,12,3) 0.141765 (1,13,2) -4.226573E-02 (1,13,4) 0.105584 (1,14,3) -4.477222E-02
(1,13,4): (1,12,4) 0.436588 (1,13,3) -0.105584 (1,13,5) 0.159725 (1,14,4) -0.127147
(1,13,5): (1,12,5) 0.950562 (1,13,4) -0.159725 (1,13,6) 5.445899E-02 (1,14,5) -0.254091
(1,13,6): (1,12,6) 1.08418 (1,13,5) -5.445899E-02 (1,13,7) -5.443758E-02 (1,14,6) -0.296340
(1,13,7): (1,12,7) 0.950600 (1,13,6) 5.443758E-02 (1,13,8) -0.159613 (1,14,7) -0.254106
(1,13,8): (1,12,8) 0.436830 (1,13,7) 0.159613 (1,13,9) -0.104973 (1,14,8) -0.127243
(1,13,9): (1,12,9) 0.143194 (1,13,8) 0.104973 (1,13,10) -3.932752E-02 (1,14,9) -4.531200E-02
(1,13,10): (1,12,10) 4.417346E-02 (1,13,9) 3.932752E-02 (1,14,10) -1.511915E-02
(1,14,1): (1,13,1) 3.362978E-03 (1,14,2) 2.957982E-03 (1,15,1) -8.946375E-04
(1,14,2): (1,13,2) 1.240463E-02 (1,14,1) -2.957982E-03 (1,14,3) 9.898955E-03 (1,15,2) -3.129656E-03
(1,14,3): (1,13,3) 4.477222E-02 (1,14,2) -9.898955E-03 (1,14,4) 2.322656E-02 (1,15,3) -1.072266E-02
(1,14,4): (1,13,4) 0.127147 (1,14,3) -2.322656E-02 (1,14,5) 3.290009E-02 (1,15,4) -2.883176E-02
(1,14,5): (1,13,5) 0.254091 (1,14,4) -3.290009E-02 (1,14,6) 1.231110E-02 (1,15,5) -5.485303E-02
(1,14,6): (1,13,6) 0.296340 (1,14,5) -1.231110E-02 (1,14,7) -1.230484E-02 (1,15,6) -6.445175E-02
(1,14,7): (1,13,7) 0.254106 (1,14,6) 1.230484E-02 (1,14,8) -3.286839E-02 (1,15,7) -5.485746E-02
(1,14,8): (1,13,8) 0.127243 (1,14,7) 3.286839E-02 (1,14,9) -2.306069E-02 (1,15,8) -2.885895E-02
(1,14,9): (1,13,9) 4.531200E-02 (1,14,8) 2.306069E-02 (1,14,10) -9.136471E-03 (1,15,9) -1.087095E-02
(1,14,10): (1,13,10) 1.511915E-02 (1,14,9) 9.136471E-03 (1,15,10) -3.844178E-03
(1,15,1): (1,14,1) 8.946375E-04 (1,15,2) 7.229678E-04
(1,15,2): (1,14,2) 3.129656E-03 (1,15,1) -7.229678E-04 (1,15,3) 2.306010E-03
(1,15,3): (1,14,3) 1.072266E-02 (1,15,2) -2.306010E-03 (1,15,4) 5.118476E-03
(1,15,4): (1,14,4) 2.883176E-02 (1,15,3) -5.118476E-03 (1,15,5) 6.884517E-03
(1,15,5): (1,14,5) 5.485303E-02 (1,15,4) -6.884517E-03 (1,15,6) 2.717377E-03
(1,15,6): (1,14,6) 6.445175E-02 (1,15,5) -2.717377E-03 (1,15,7) -2.715535E-03
(1,15,7): (1,14,7) 5.485746E-02 (1,15,6) 2.715535E-03 (1,15,8) -6.875583E-03
(1,15,8): (1,14,8) 2.885895E-02 (1,15,7) 6.875583E-03 (1,15,9) -5.073731E-03
(1,15,9): (1,14,9) 1.087095E-02 (1,15,8) 5.073731E-03 (1,15,10) -2.109819E-03
(1,15,10): (1,14,10) 3.844178E-03 (1,15,9) 2.109819E-03

 WEL PACKAGE (WEL-1) FLOW RATES   PERIOD      2   STEP       24
 ----------------------------------------------------------------------------------------
   NUMBER   CELLID                    RATE       NAME                                    
 ----------------------------------------------------------------------------------------
     1      (1,8,6)              -239.48885      WEL                                     
 ----------------------------------------------------------------------------------------




 DRN PACKAGE (DRN-0) FLOW RATES   PERIOD      2   STEP       24
 ----------------------------------------------------------------------------------------
   NUMBER   CELLID                    RATE       NAME                                    
 ----------------------------------------------------------------------------------------
     1      (1,1,1)               0.0000000      SURF                                    
     2      (1,1,2)               0.0000000      SURF                                    
     3      (1,1,3)               0.0000000      SURF                                    
     4      (1,1,4)               0.0000000      SURF                                    
     5      (1,1,5)               0.0000000      SURF                                    
     6      (1,1,6)               0.0000000      SURF                                    
     7      (1,1,7)               0.0000000      SURF                                    
     8      (1,1,8)               0.0000000      SURF                                    
     9      (1,1,9)               0.0000000      SURF                                    
     10     (1,1,10)              0.0000000      SURF                                    
     11     (1,2,1)               0.0000000      SURF                                    
     12     (1,2,2)               0.0000000      SURF                                    
     13     (1,2,3)               0.0000000      SURF                                    
     14     (1,2,4)               0.0000000      SURF                                    
     15     (1,2,5)               0.0000000      SURF                                    
     16     (1,2,6)               0.0000000      SURF                                    
     17     (1,2,7)               0.0000000      SURF                                    
     18     (1,2,8)               0.0000000      SURF                                    
     19     (1,2,9)               0.0000000      SURF                                    
     20     (1,2,10)              0.0000000      SURF                                    
     21     (1,3,1)               0.0000000      SURF                                    
     22     (1,3,2)               0.0000000      SURF                                    
     23     (1,3,3)               0.0000000      SURF                                    
     24     (1,3,4)               0.0000000      SURF                                    
     25     (1,3,5)               0.0000000      SURF                                    
     26     (1,3,6)               0.0000000      SURF                                    
     27     (1,3,7)               0.0000000      SURF                                    
     28     (1,3,8)               0.0000000      SURF                                    
     29     (1,3,9)               0.0000000      SURF                                    
     30     (1,3,10)              0.0000000      SURF                                    
     31     (1,4,1)               0.0000000      SURF                                    
     32     (1,4,2)               0.0000000      SURF                                    
     33     (1,4,3)               0.0000000      SURF                                    
     34     (1,4,4)               0.0000000      SURF                                    
     35     (1,4,5)               0.0000000      SURF                                    
     36     (1,4,6)               0.0000000      SURF                                    
     37     (1,4,7)               0.0000000      SURF                                    
     38     (1,4,8)               0.0000000      SURF                                    
     39     (1,4,9)               0.0000000      SURF                                    
     40     (1,4,10)              0.0000000      SURF                                    
     41     (1,5,1)               0.0000000      SURF                                    
     42     (1,5,2)               0.0000000      SURF                                    
     43     (1,5,3)               0.0000000      SURF                                    
     44     (1,5,4)               0.0000000      SURF                                    
     45     (1,5,5)               0.0000000      SURF                                    
     46     (1,5,6)               0.0000000      SURF                                    
     47     (1,5,7)               0.0000000      SURF                                    
     48     (1,5,8)               0.0000000      SURF                                    
     49     (1,5,9)               0.0000000      SURF                                    
     50     (1,5,10)              0.0000000      SURF                                    
     51     (1,6,1)               0.0000000      SURF                                    
     52     (1,6,2)               0.0000000      SURF                                    
     53     (1,6,3)               0.0000000      SURF                                    
     54     (1,6,4)               0.0000000      SURF                                    
     55     (1,6,5)               0.0000000      SURF                                    
     56     (1,6,6)               0.0000000      SURF                                    
     57     (1,6,7)              -6.92671165E-09 SURF                                    
     58     (1,6,8)               0.0000000      SURF                                    
     59     (1,6,9)               0.0000000      SURF                                    
     60     (1,6,10)              0.0000000      SURF                                    
     61     (1,7,1)               0.0000000      SURF                                    
     62     (1,7,2)               0.0000000      SURF                                    
     63     (1,7,3)               0.0000000      SURF                                    
     64     (1,7,4)               0.0000000      SURF                                    
     65     (1,7,5)               0.0000000      SURF                                    
     66     (1,7,6)               0.0000000      SURF                                    
     67     (1,7,7)               0.0000000      SURF                                    
     68     (1,7,8)               0.0000000      SURF                                    
     69     (1,7,9)               0.0000000      SURF                                    
     70     (1,7,10)              0.0000000      SURF                                    
     71     (1,8,1)               0.0000000      SURF                                    
     72     (1,8,2)               0.0000000      SURF                                    
     73     (1,8,3)               0.0000000      SURF                                    
     74     (1,8,4)               0.0000000      SURF                                    
     75     (1,8,5)               0.0000000      SURF                                    
     76     (1,8,6)               0.0000000      SURF                                    
     77     (1,8,7)               0.0000000      SURF                                    
     78     (1,8,8)               0.0000000      SURF                                    
     79     (1,8,9)               0.0000000      SURF                                    
     80     (1,8,10)              0.0000000      SURF                                    
     81     (1,9,1)               0.0000000      SURF                                    
     82     (1,9,2)               0.0000000      SURF                                    
     83     (1,9,3)               0.0000000      SURF                                    
     84     (1,9,4)               0.0000000      SURF                                    
     85     (1,9,5)               0.0000000      SURF                                    
     86     (1,9,6)               0.0000000      SURF                                    
     87     (1,9,7)               0.0000000      SURF                                    
     88     (1,9,8)               0.0000000      SURF                                    
     89     (1,9,9)               0.0000000      SURF                                    
     90     (1,9,10)              0.0000000      SURF                                    
     91     (1,10,1)              0.0000000      SURF                                    
     92     (1,10,2)              0.0000000      SURF                                    
     93     (1,10,3)              0.0000000      SURF                                    
     94     (1,10,4)              0.0000000      SURF                                    
     95     (1,10,5)              0.0000000      SURF                                    
     96     (1,10,6)              0.0000000      SURF                                    
     97     (1,10,7)             -3.45986336E-07 SURF                                    
     98     (1,10,8)              0.0000000      SURF                                    
     99     (1,10,9)              0.0000000      SURF                                    
    100     (1,10,10)             0.0000000      SURF                                    
    101     (1,11,1)              0.0000000      SURF                                    
    102     (1,11,2)              0.0000000      SURF                                    
    103     (1,11,3)              0.0000000      SURF                                    
    104     (1,11,4)              0.0000000      SURF                                    
    105     (1,11,5)              0.0000000      SURF                                    
    106     (1,11,6)              0.0000000      SURF                                    
    107     (1,11,7)              0.0000000      SURF                                    
    108     (1,11,8)              0.0000000      SURF                                    
    109     (1,11,9)              0.0000000      SURF                                    
    110     (1,11,10)             0.0000000      SURF                                    
    111     (1,12,1)              0.0000000      SURF                                    
    112     (1,12,2)              0.0000000      SURF                                    
    113     (1,12,3)              0.0000000      SURF                                    
    114     (1,12,4)              0.0000000      SURF                                    
    115     (1,12,5)              0.0000000      SURF                                    
    116     (1,12,6)              0.0000000      SURF                                    
    117     (1,12,7)              0.0000000      SURF                                    
    118     (1,12,8)              0.0000000      SURF                                    
    119     (1,12,9)              0.0000000      SURF                                    
    120     (1,12,10)             0.0000000      SURF                                    
    121     (1,13,1)              0.0000000      SURF                                    
    122     (1,13,2)              0.0000000      SURF                                    
    123     (1,13,3)              0.0000000      SURF                                    
    124     (1,13,4)              0.0000000      SURF                                    
    125     (1,13,5)              0.0000000      SURF                                    
    126     (1,13,6)              0.0000000      SURF                                    
    127     (1,13,7)              0.0000000      SURF                                    
    128     (1,13,8)              0.0000000      SURF                                    
    129     (1,13,9)              0.0000000      SURF                                    
    130     (1,13,10)             0.0000000      SURF                                    
    131     (1,14,1)              0.0000000      SURF                                    
    132     (1,14,2)              0.0000000      SURF                                    
    133     (1,14,3)              0.0000000      SURF                                    
    134     (1,14,4)              0.0000000      SURF                                    
    135     (1,14,5)              0.0000000      SURF                                    
    136     (1,14,6)              0.0000000      SURF                                    
    137     (1,14,7)              0.0000000      SURF                                    
    138     (1,14,8)              0.0000000      SURF                                    
    139     (1,14,9)              0.0000000      SURF                                    
    140     (1,14,10)             0.0000000      SURF                                    
    141     (1,15,1)              0.0000000      SURF                                    
    142     (1,15,2)              0.0000000      SURF                                    
    143     (1,15,3)              0.0000000      SURF                                    
    144     (1,15,4)              0.0000000      SURF                                    
    145     (1,15,5)              0.0000000      SURF                                    
    146     (1,15,6)              0.0000000      SURF                                    
    147     (1,15,7)              0.0000000      SURF                                    
    148     (1,15,8)              0.0000000      SURF                                    
    149     (1,15,9)              0.0000000      SURF                                    
    150     (1,15,10)             0.0000000      SURF                                    
 ----------------------------------------------------------------------------------------




 API PACKAGE (MAR) FLOW RATES   PERIOD      2   STEP       24
 -----------------------------------------------
   NUMBER   CELLID                    RATE      
 -----------------------------------------------
     1      (1,6,5)               31.473199     
     2      (1,6,6)               31.473199     
     3      (1,6,7)               31.473199     
     4      (1,10,5)              32.088587     
     5      (1,10,6)              32.088587     
     6      (1,10,7)              32.088587     
 -----------------------------------------------



1
  HEAD IN LAYER   1 AT END OF TIME STEP  24 IN STRESS PERIOD    2
  ---------------------------------------------------------------------------

            1           2           3           4           5           6           7           8           9          10
 ........................................................................................................................
   1   7.5839E-05  2.2143E-04  6.4755E-04  1.5128E-03  2.6006E-03  3.0489E-03  2.6012E-03  1.5159E-03  6.6168E-04  2.7944E-04
   2   2.5764E-04  7.8755E-04  2.4046E-03  5.8552E-03  1.0397E-02  1.2187E-02  1.0399E-02  5.8649E-03  2.4513E-03  9.8685E-04
   3   8.8063E-04  2.8177E-03  9.0015E-03  2.2971E-02  4.2500E-02  4.9565E-02  4.2506E-02  2.3002E-02  9.1570E-03  3.5060E-03
   4   2.4361E-03  8.1942E-03  2.7614E-02  7.4979E-02  0.1480      0.1697      0.1480      7.5060E-02  2.8032E-02  1.0117E-02
   5   4.9243E-03  1.7488E-02  6.3003E-02  0.1879      0.4236      0.4611      0.4236      0.1881      6.3820E-02  2.1408E-02
   6   5.8299E-03  2.1563E-02  8.3963E-02  0.2976       1.000      0.9269       1.000      0.2978      8.4913E-02  2.6223E-02
   7   9.5556E-04  2.4722E-04 -1.4062E-02 -0.1086     -0.5095      -1.731     -0.5095     -0.1085     -1.3826E-02  8.9990E-04
   8  -3.1920E-03 -1.7663E-02 -9.7830E-02 -0.4784      -2.097      -9.130      -2.097     -0.4785     -9.8218E-02 -2.0410E-02
   9  -5.6485E-04 -3.7832E-03 -2.3854E-02 -0.1247     -0.5243      -1.746     -0.5243     -0.1247     -2.3910E-02 -4.2825E-03
  10   3.5130E-03  1.5557E-02  7.0259E-02  0.2796       1.000      0.9292       1.000      0.2797      7.0763E-02  1.8469E-02
  11   2.9985E-03  1.2319E-02  5.0095E-02  0.1652      0.3982      0.4330      0.3982      0.1653      5.0545E-02  1.4781E-02
  12   1.3843E-03  5.3154E-03  2.0030E-02  5.9822E-02  0.1262      0.1446      0.1262      5.9859E-02  2.0246E-02  6.4400E-03
  13   4.5776E-04  1.6575E-03  5.8816E-03  1.6423E-02  3.2344E-02  3.7769E-02  3.2346E-02  1.6436E-02  5.9559E-03  2.0255E-03
  14   1.2148E-04  4.1726E-04  1.4070E-03  3.7288E-03  7.0165E-03  8.2466E-03  7.0171E-03  3.7326E-03  1.4274E-03  5.1388E-04
  15   3.2013E-05  1.0431E-04  3.3490E-04  8.4671E-04  1.5351E-03  1.8067E-03  1.5352E-03  8.4778E-04  3.4045E-04  1.2948E-04

 HEAD WILL BE SAVED ON UNIT 1100 AT END OF TIME STEP   24, STRESS PERIOD    2


  VOLUME BUDGET FOR ENTIRE MODEL AT END OF TIME STEP   24, STRESS PERIOD   2
  ---------------------------------------------------------------------------------------------------

     CUMULATIVE VOLUME      L**3       RATES FOR THIS TIME STEP      L**3/T          PACKAGE NAME    
     ------------------                 ------------------------                     ----------------

           IN:                                      IN:
           ---                                      ---
              STO-SS =          15.9782                STO-SS =       4.0258E-02     STORAGE                          
              STO-SY =       41903.5082                STO-SY =          94.9493     STORAGE                          
                 WEL =           0.0000                   WEL =           0.0000     WEL-1                            
                 DRN =           0.0000                   DRN =           0.0000     DRN-0                            
                 API =       48267.7745                   API =         190.6854     MAR                              
                 CHD =       2.0279E-08                   CHD =           0.0000     CHD_0                            

            TOTAL IN =       90187.2608              TOTAL IN =         285.6750

          OUT:                                     OUT:
          ----                                     ----
              STO-SS =          13.4113                STO-SS =       2.3433E-02     STORAGE                          
              STO-SY =       26043.4364                STO-SY =          46.1627     STORAGE                          
                 WEL =       64130.4131                   WEL =         239.4889     WEL-1                            
                 DRN =       6.7244E-05                   DRN =       3.5291E-07     DRN-0                            
                 API =           0.0000                   API =           0.0000     MAR                              
                 CHD =       2.0705E-08                   CHD =           0.0000     CHD_0                            

           TOTAL OUT =       90187.2608             TOTAL OUT =         285.6750

            IN - OUT =      -5.0907E-07              IN - OUT =      -3.0253E-09

 PERCENT DISCREPANCY =          -0.00     PERCENT DISCREPANCY =          -0.00




         TIME SUMMARY AT END OF TIME STEP   24 IN STRESS PERIOD    2
                    SECONDS     MINUTES      HOURS       DAYS        YEARS
                    -----------------------------------------------------------
   TIME STEP LENGTH 8.64000E+05  14400.      240.00      10.000     2.73785E-02
 STRESS PERIOD TIME 2.07360E+07 3.45600E+05  5760.0      240.00     0.65708    
         TOTAL TIME 2.08224E+07 3.47040E+05  5784.0      241.00     0.65982    


end timestep


start timestep kper="2" kstp="25" mode="normal"

 UBDSV1 SAVING           STO-SS ON UNIT   1099 AT TIME STEP     25, STRESS PERIOD      2
 UBDSV1 SAVING           STO-SY ON UNIT   1099 AT TIME STEP     25, STRESS PERIOD      2
 UBDSV1 SAVING     FLOW-JA-FACE ON UNIT   1099 AT TIME STEP     25, STRESS PERIOD      2
 UBDSV06 SAVING       DATA-SPDIS IN MODEL GWF              PACKAGE NPF             CONNECTED TO MODEL GWF              PACKAGE NPF              ON UNIT   1099 AT TIME STEP     25, STRESS PERIOD      2
 UBDSV06 SAVING              WEL IN MODEL GWF              PACKAGE GWF             CONNECTED TO MODEL GWF              PACKAGE WEL-1            ON UNIT   1099 AT TIME STEP     25, STRESS PERIOD      2
 UBDSV06 SAVING              DRN IN MODEL GWF              PACKAGE GWF             CONNECTED TO MODEL GWF              PACKAGE DRN-0            ON UNIT   1099 AT TIME STEP     25, STRESS PERIOD      2
 UBDSV06 SAVING              API IN MODEL GWF              PACKAGE GWF             CONNECTED TO MODEL GWF              PACKAGE MAR              ON UNIT   1099 AT TIME STEP     25, STRESS PERIOD      2
 UBDSV06 SAVING              CHD IN MODEL GWF              PACKAGE GWF             CONNECTED TO MODEL GWF              PACKAGE CHD_0            ON UNIT   1099 AT TIME STEP     25, STRESS PERIOD      2

    CALCULATED INTERCELL FLOW FOR PERIOD 2 STEP 25
(1,1,1): (1,1,2) 1.751998E-03 (1,2,1) 2.184069E-03
(1,1,2): (1,1,1) -1.751998E-03 (1,1,3) 5.013057E-03 (1,2,2) 6.598722E-03
(1,1,3): (1,1,2) -5.013057E-03 (1,1,4) 9.941335E-03 (1,2,3) 1.996865E-02
(1,1,4): (1,1,3) -9.941335E-03 (1,1,5) 1.226398E-02 (1,2,4) 4.831885E-02
(1,1,5): (1,1,4) -1.226398E-02 (1,1,6) 5.061964E-03 (1,2,5) 8.550517E-02
(1,1,6): (1,1,5) -5.061964E-03 (1,1,7) -5.054287E-03 (1,2,6) 9.997812E-02
(1,1,7): (1,1,6) 5.054287E-03 (1,1,8) -1.223174E-02 (1,2,7) 8.552063E-02
(1,1,8): (1,1,7) 1.223174E-02 (1,1,9) -9.799879E-03 (1,2,8) 4.840257E-02
(1,1,9): (1,1,8) 9.799879E-03 (1,1,10) -4.469657E-03 (1,2,9) 2.036812E-02
(1,1,10): (1,1,9) 4.469657E-03 (1,2,10) 8.283392E-03
(1,2,1): (1,1,1) -2.184069E-03 (1,2,2) 6.166631E-03 (1,3,1) 7.276505E-03
(1,2,2): (1,1,2) -6.598722E-03 (1,2,1) -6.166631E-03 (1,2,3) 1.838277E-02 (1,3,2) 2.299085E-02
(1,2,3): (1,1,3) -1.996865E-02 (1,2,2) -1.838277E-02 (1,2,4) 3.828870E-02 (1,3,3) 7.283148E-02
(1,2,4): (1,1,4) -4.831885E-02 (1,2,3) -3.828870E-02 (1,2,5) 4.943692E-02 (1,3,4) 0.185132
(1,2,5): (1,1,5) -8.550517E-02 (1,2,4) -4.943692E-02 (1,2,6) 1.952332E-02 (1,3,5) 0.342627
(1,2,6): (1,1,6) -9.997812E-02 (1,2,5) -1.952332E-02 (1,2,7) -1.950019E-02 (1,3,6) 0.398229
(1,2,7): (1,1,7) -8.552063E-02 (1,2,6) 1.950019E-02 (1,2,8) -4.933642E-02 (1,3,7) 0.342675
(1,2,8): (1,1,8) -4.840257E-02 (1,2,7) 4.933642E-02 (1,2,9) -3.783136E-02 (1,3,8) 0.185397
(1,2,9): (1,1,9) -2.036812E-02 (1,2,8) 3.783136E-02 (1,2,10) -1.655393E-02 (1,3,9) 7.413053E-02
(1,2,10): (1,1,10) -8.283392E-03 (1,2,9) 1.655393E-02 (1,3,10) 2.866167E-02
(1,3,1): (1,2,1) -7.276505E-03 (1,3,2) 2.188080E-02 (1,4,1) 1.758286E-02
(1,3,2): (1,2,2) -2.299085E-02 (1,3,1) -2.188080E-02 (1,3,3) 6.822110E-02 (1,4,2) 5.891706E-02
(1,3,3): (1,2,3) -7.283148E-02 (1,3,2) -6.822110E-02 (1,3,4) 0.150551 (1,4,3) 0.199125
(1,3,4): (1,2,4) -0.185132 (1,3,3) -0.150551 (1,3,5) 0.206720 (1,4,4) 0.547287
(1,3,5): (1,2,5) -0.342627 (1,3,4) -0.206720 (1,3,6) 7.494905E-02 (1,4,5) 1.10264
(1,3,6): (1,2,6) -0.398229 (1,3,5) -7.494905E-02 (1,3,7) -7.487792E-02 (1,4,6) 1.25440
(1,3,7): (1,2,7) -0.342675 (1,3,6) 7.487792E-02 (1,3,8) -0.206402 (1,4,7) 1.10275
(1,3,8): (1,2,8) -0.185397 (1,3,7) 0.206402 (1,3,9) -0.149057 (1,4,8) 0.547889
(1,3,9): (1,2,9) -7.413053E-02 (1,3,8) 0.149057 (1,3,10) -6.201730E-02 (1,4,9) 0.202171
(1,3,10): (1,2,10) -2.866167E-02 (1,3,9) 6.201730E-02 (1,4,10) 7.278982E-02
(1,4,1): (1,3,1) -1.758286E-02 (1,4,2) 6.321677E-02 (1,5,1) 2.703555E-02
(1,4,2): (1,3,2) -5.891706E-02 (1,4,1) -6.321677E-02 (1,4,3) 0.208443 (1,5,2) 9.798299E-02
(1,4,3): (1,3,3) -0.199125 (1,4,2) -0.208443 (1,4,4) 0.498545 (1,5,3) 0.365858
(1,4,4): (1,3,4) -0.547287 (1,4,3) -0.498545 (1,4,5) 0.760245 (1,5,4) 1.16210
(1,4,5): (1,3,5) -1.10264 (1,4,4) -0.760245 (1,4,6) 0.225220 (1,5,5) 2.87746
(1,4,6): (1,3,6) -1.25440 (1,4,5) -0.225220 (1,4,7) -0.225041 (1,5,6) 3.04097
(1,4,7): (1,3,7) -1.10275 (1,4,6) 0.225041 (1,4,8) -0.759430 (1,5,7) 2.87762
(1,4,8): (1,3,8) -0.547889 (1,4,7) 0.759430 (1,4,9) -0.494595 (1,5,8) 1.16297
(1,4,9): (1,3,9) -0.202171 (1,4,8) 0.494595 (1,4,10) -0.191385 (1,5,9) 0.370363
(1,4,10): (1,3,10) -7.278982E-02 (1,4,9) 0.191385 (1,5,10) 0.119606
(1,5,1): (1,4,1) -2.703555E-02 (1,5,2) 0.134190 (1,6,1) 8.317891E-03
(1,5,2): (1,4,2) -9.798299E-02 (1,5,1) -0.134190 (1,5,3) 0.476609 (1,6,2) 3.702545E-02
(1,5,3): (1,4,3) -0.365858 (1,5,2) -0.476609 (1,5,4) 1.29581 (1,6,3) 0.194880
(1,5,4): (1,4,4) -1.16210 (1,5,3) -1.29581 (1,5,5) 2.46927 (1,6,4) 1.08021
(1,5,5): (1,4,5) -2.87746 (1,5,4) -2.46927 (1,5,6) 0.385012 (1,6,5) 6.26839
(1,5,6): (1,4,6) -3.04097 (1,5,5) -0.385012 (1,5,7) -0.384676 (1,6,6) 4.97387
(1,5,7): (1,4,7) -2.87762 (1,5,6) 0.384676 (1,5,8) -2.46772 (1,6,7) 6.26845
(1,5,8): (1,4,8) -1.16297 (1,5,7) 2.46772 (1,5,9) -1.28815 (1,6,8) 1.08044
(1,5,9): (1,4,9) -0.370363 (1,5,8) 1.28815 (1,5,10) -0.442320 (1,6,9) 0.196140
(1,5,10): (1,4,10) -0.119606 (1,5,9) 0.442320 (1,6,10) 4.380430E-02
(1,6,1): (1,5,1) -8.317891E-03 (1,6,2) 0.162933 (1,7,1) -5.401827E-02
(1,6,2): (1,5,2) -3.702545E-02 (1,6,1) -0.162933 (1,6,3) 0.635146 (1,7,2) -0.229927
(1,6,3): (1,5,3) -0.194880 (1,6,2) -0.635146 (1,6,4) 2.19036 (1,7,3) -1.03981
(1,6,4): (1,5,4) -1.08021 (1,6,3) -2.19036 (1,6,5) 7.71875 (1,7,4) -4.31936
(1,6,5): (1,5,5) -6.26839 (1,6,4) -7.71875 (1,6,6) -0.854520 (1,7,5) -16.9228
(1,6,6): (1,5,6) -4.97387 (1,6,5) 0.854520 (1,6,7) 0.854915 (1,7,6) -29.4178
(1,6,7): (1,5,7) -6.26845 (1,6,6) -0.854915 (1,6,8) -7.71696 (1,7,7) -16.9230
(1,6,8): (1,5,8) -1.08044 (1,6,7) 7.71696 (1,6,9) -2.18159 (1,7,8) -4.32083
(1,6,9): (1,5,9) -0.196140 (1,6,8) 2.18159 (1,6,10) -0.595252 (1,7,9) -1.04806
(1,6,10): (1,5,10) -4.380430E-02 (1,6,9) 0.595252 (1,7,10) -0.274283
(1,7,1): (1,6,1) 5.401827E-02 (1,7,2) -1.285951E-02 (1,8,1) -4.543298E-02
(1,7,2): (1,6,2) 0.229927 (1,7,1) 1.285951E-02 (1,7,3) -0.171821 (1,8,2) -0.190795
(1,7,3): (1,6,3) 1.03981 (1,7,2) 0.171821 (1,7,4) -1.03453 (1,8,3) -0.871942
(1,7,4): (1,6,4) 4.31936 (1,7,3) 1.03453 (1,7,5) -4.12247 (1,8,4) -3.74482
(1,7,5): (1,6,5) 16.9228 (1,7,4) 4.12247 (1,7,6) -11.6624 (1,8,5) -15.1843
(1,7,6): (1,6,6) 29.4178 (1,7,5) 11.6624 (1,7,7) 11.6626 (1,8,6) -60.7069
(1,7,7): (1,6,7) 16.9230 (1,7,6) -11.6626 (1,7,8) 4.12301 (1,8,7) -15.1845
(1,7,8): (1,6,8) 4.32083 (1,7,7) -4.12301 (1,7,9) 1.03639 (1,8,8) -3.74607
(1,7,9): (1,6,9) 1.04806 (1,7,8) -1.03639 (1,7,10) 0.175398 (1,8,9) -0.878933
(1,7,10): (1,6,10) 0.274283 (1,7,9) -0.175398 (1,8,10) -0.227817
(1,8,1): (1,7,1) 4.543298E-02 (1,8,2) -0.158174 (1,9,1) 2.937437E-02
(1,8,2): (1,7,2) 0.190795 (1,8,1) 0.158174 (1,8,3) -0.852839 (1,9,2) 0.149991
(1,8,3): (1,7,3) 0.871942 (1,8,2) 0.852839 (1,8,4) -3.91216 (1,9,3) 0.776234
(1,8,4): (1,7,4) 3.74482 (1,8,3) 3.91216 (1,8,5) -15.6088 (1,9,4) 3.59018
(1,8,5): (1,7,5) 15.1843 (1,8,4) 15.6088 (1,8,6) -55.0364 (1,9,5) 15.0369
(1,8,6): (1,7,6) 60.7069 (1,8,5) 55.0364 (1,8,7) 55.0363 (1,9,6) 60.5015
(1,8,7): (1,7,7) 15.1845 (1,8,6) -55.0363 (1,8,8) 15.6082 (1,9,7) 15.0369
(1,8,8): (1,7,8) 3.74607 (1,8,7) -15.6082 (1,8,9) 3.90812 (1,9,8) 3.59070
(1,8,9): (1,7,9) 0.878933 (1,8,8) -3.90812 (1,8,10) 0.826172 (1,9,9) 0.780033
(1,8,10): (1,7,10) 0.227817 (1,8,9) -0.826172 (1,9,10) 0.174960
(1,9,1): (1,8,1) -2.937437E-02 (1,9,2) -3.754798E-02 (1,10,1) 4.567385E-02
(1,9,2): (1,8,2) -0.149991 (1,9,1) 3.754798E-02 (1,9,3) -0.226118 (1,10,2) 0.209929
(1,9,3): (1,8,3) -0.776234 (1,9,2) 0.226118 (1,9,4) -1.08923 (1,10,3) 1.00016
(1,9,4): (1,8,4) -3.59018 (1,9,3) 1.08923 (1,9,5) -4.09881 (1,10,4) 4.29296
(1,9,5): (1,8,5) -15.0369 (1,9,4) 4.09881 (1,9,6) -11.6445 (1,10,5) 17.0697
(1,9,6): (1,8,6) -60.5015 (1,9,5) 11.6445 (1,9,7) 11.6445 (1,10,6) 29.5956
(1,9,7): (1,8,7) -15.0369 (1,9,6) -11.6445 (1,9,8) 4.09875 (1,10,7) 17.0699
(1,9,8): (1,8,8) -3.59070 (1,9,7) -4.09875 (1,9,9) 1.08861 (1,10,8) 4.29401
(1,9,9): (1,8,9) -0.780033 (1,9,8) -1.08861 (1,9,10) 0.220820 (1,10,9) 1.00669
(1,9,10): (1,8,10) -0.174960 (1,9,9) -0.220820 (1,10,10) 0.248042
(1,10,1): (1,9,1) -4.567385E-02 (1,10,2) 0.126585 (1,11,1) -4.555005E-03
(1,10,2): (1,9,2) -0.209929 (1,10,1) -0.126585 (1,10,3) 0.561211 (1,11,2) -2.950417E-02
(1,10,3): (1,9,3) -1.00016 (1,10,2) -0.561211 (1,10,4) 2.14913 (1,11,3) -0.189189
(1,10,4): (1,9,4) -4.29296 (1,10,3) -2.14913 (1,10,5) 7.90570 (1,11,4) -1.12787
(1,10,5): (1,9,5) -17.0697 (1,10,4) -7.90570 (1,10,6) -0.827377 (1,11,5) -6.53150
(1,10,6): (1,9,6) -29.5956 (1,10,5) 0.827377 (1,10,7) 0.827549 (1,11,6) -5.28766
(1,10,7): (1,9,7) -17.0699 (1,10,6) -0.827549 (1,10,8) -7.90484 (1,11,7) -6.53152
(1,10,8): (1,9,8) -4.29401 (1,10,7) 7.90484 (1,10,9) -2.14419 (1,11,8) -1.12792
(1,10,9): (1,9,9) -1.00669 (1,10,8) 2.14419 (1,10,10) -0.534789 (1,11,9) -0.189664
(1,10,10): (1,9,10) -0.248042 (1,10,9) 0.534789 (1,11,10) -3.353140E-02
(1,11,1): (1,10,1) 4.555005E-03 (1,11,2) 0.101611 (1,12,1) -1.798268E-02
(1,11,2): (1,10,2) 2.950417E-02 (1,11,1) -0.101611 (1,11,3) 0.400941 (1,12,2) -7.526968E-02
(1,11,3): (1,10,3) 0.189189 (1,11,2) -0.400941 (1,11,4) 1.20142 (1,12,3) -0.314876
(1,11,4): (1,10,4) 1.12787 (1,11,3) -1.20142 (1,11,5) 2.44159 (1,12,4) -1.09107
(1,11,5): (1,10,5) 6.53150 (1,11,4) -2.44159 (1,11,6) 0.360738 (1,12,5) -2.84335
(1,11,6): (1,10,6) 5.28766 (1,11,5) -0.360738 (1,11,7) -0.360588 (1,12,6) -3.01353
(1,11,7): (1,10,7) 6.53152 (1,11,6) 0.360588 (1,11,8) -2.44081 (1,12,7) -2.84342
(1,11,8): (1,10,8) 1.12792 (1,11,7) 2.44081 (1,11,9) -1.19696 (1,12,8) -1.09152
(1,11,9): (1,10,9) 0.189664 (1,11,8) 1.19696 (1,11,10) -0.378126 (1,12,9) -0.317571
(1,11,10): (1,10,10) 3.353140E-02 (1,11,9) 0.378126 (1,12,10) -9.009684E-02
(1,12,1): (1,11,1) 1.798268E-02 (1,12,2) 4.430939E-02 (1,13,1) -1.080469E-02
(1,12,2): (1,11,2) 7.526968E-02 (1,12,1) -4.430939E-02 (1,12,3) 0.161132 (1,13,2) -4.112561E-02
(1,12,3): (1,11,3) 0.314876 (1,12,2) -0.161132 (1,12,4) 0.424403 (1,13,3) -0.154414
(1,12,4): (1,11,4) 1.09107 (1,12,3) -0.424403 (1,12,5) 0.695726 (1,13,4) -0.463012
(1,12,5): (1,11,5) 2.84335 (1,12,4) -0.695726 (1,12,6) 0.194462 (1,13,5) -0.989211
(1,12,6): (1,11,6) 3.01353 (1,12,5) -0.194462 (1,12,7) -0.194386 (1,13,6) -1.12608
(1,12,7): (1,11,7) 2.84342 (1,12,6) 0.194386 (1,12,8) -0.695328 (1,13,7) -0.989259
(1,12,8): (1,11,8) 1.09152 (1,12,7) 0.695328 (1,12,9) -0.422224 (1,13,8) -0.463312
(1,12,9): (1,11,9) 0.317571 (1,12,8) 0.422224 (1,12,10) -0.150516 (1,13,9) -0.156124
(1,12,10): (1,11,10) 9.009684E-02 (1,12,9) 0.150516 (1,13,10) -4.989345E-02
(1,13,1): (1,12,1) 1.080469E-02 (1,13,2) 1.398750E-02 (1,14,1) -4.072564E-03
(1,13,2): (1,12,2) 4.112561E-02 (1,13,1) -1.398750E-02 (1,13,3) 4.783541E-02 (1,14,2) -1.449102E-02
(1,13,3): (1,12,3) 0.154414 (1,13,2) -4.783541E-02 (1,13,4) 0.115923 (1,14,3) -5.071752E-02
(1,13,4): (1,12,4) 0.463012 (1,13,3) -0.115923 (1,13,5) 0.171021 (1,14,4) -0.140215
(1,13,5): (1,12,5) 0.989211 (1,13,4) -0.171021 (1,13,6) 5.881114E-02 (1,14,5) -0.274814
(1,13,6): (1,12,6) 1.12608 (1,13,5) -5.881114E-02 (1,13,7) -5.878247E-02 (1,14,6) -0.319944
(1,13,7): (1,12,7) 0.989259 (1,13,6) 5.878247E-02 (1,13,8) -0.170877 (1,14,7) -0.274834
(1,13,8): (1,12,8) 0.463312 (1,13,7) 0.170877 (1,13,9) -0.115161 (1,14,8) -0.140337
(1,13,9): (1,12,9) 0.156124 (1,13,8) 0.115161 (1,13,10) -4.429068E-02 (1,14,9) -5.138776E-02
(1,13,10): (1,12,10) 4.989345E-02 (1,13,9) 4.429068E-02 (1,14,10) -1.775345E-02
(1,14,1): (1,13,1) 4.072564E-03 (1,14,2) 3.569096E-03 (1,15,1) -1.119373E-03
(1,14,2): (1,13,2) 1.449102E-02 (1,14,1) -3.569096E-03 (1,14,3) 1.160996E-02 (1,15,2) -3.782395E-03
(1,14,3): (1,13,3) 5.071752E-02 (1,14,2) -1.160996E-02 (1,14,4) 2.644741E-02 (1,15,3) -1.257932E-02
(1,14,4): (1,13,4) 0.140215 (1,14,3) -2.644741E-02 (1,14,5) 3.656088E-02 (1,15,4) -3.295833E-02
(1,14,5): (1,13,5) 0.274814 (1,14,4) -3.656088E-02 (1,14,6) 1.379700E-02 (1,15,5) -6.154820E-02
(1,14,6): (1,13,6) 0.319944 (1,14,5) -1.379700E-02 (1,14,7) -1.378835E-02 (1,15,6) -7.217928E-02
(1,14,7): (1,13,7) 0.274834 (1,14,6) 1.378835E-02 (1,14,8) -3.651865E-02 (1,15,7) -6.155423E-02
(1,14,8): (1,13,8) 0.140337 (1,14,7) 3.651865E-02 (1,14,9) -2.623356E-02 (1,15,8) -3.299426E-02
(1,14,9): (1,13,9) 5.138776E-02 (1,14,8) 2.623356E-02 (1,14,10) -1.065875E-02 (1,15,9) -1.276928E-02
(1,14,10): (1,13,10) 1.775345E-02 (1,14,9) 1.065875E-02 (1,15,10) -4.669557E-03
(1,15,1): (1,14,1) 1.119373E-03 (1,15,2) 9.060797E-04
(1,15,2): (1,14,2) 3.782395E-03 (1,15,1) -9.060797E-04 (1,15,3) 2.813120E-03
(1,15,3): (1,14,3) 1.257932E-02 (1,15,2) -2.813120E-03 (1,15,4) 6.069727E-03
(1,15,4): (1,14,4) 3.295833E-02 (1,15,3) -6.069727E-03 (1,15,5) 7.978136E-03
(1,15,5): (1,14,5) 6.154820E-02 (1,15,4) -7.978136E-03 (1,15,6) 3.172111E-03
(1,15,6): (1,14,6) 7.217928E-02 (1,15,5) -3.172111E-03 (1,15,7) -3.169484E-03
(1,15,7): (1,14,7) 6.155423E-02 (1,15,6) 3.169484E-03 (1,15,8) -7.965818E-03
(1,15,8): (1,14,8) 3.299426E-02 (1,15,7) 7.965818E-03 (1,15,9) -6.009951E-03
(1,15,9): (1,14,9) 1.276928E-02 (1,15,8) 6.009951E-03 (1,15,10) -2.559194E-03
(1,15,10): (1,14,10) 4.669557E-03 (1,15,9) 2.559194E-03

 WEL PACKAGE (WEL-1) FLOW RATES   PERIOD      2   STEP       25
 ----------------------------------------------------------------------------------------
   NUMBER   CELLID                    RATE       NAME                                    
 ----------------------------------------------------------------------------------------
     1      (1,8,6)              -234.92409      WEL                                     
 ----------------------------------------------------------------------------------------




 DRN PACKAGE (DRN-0) FLOW RATES   PERIOD      2   STEP       25
 ----------------------------------------------------------------------------------------
   NUMBER   CELLID                    RATE       NAME                                    
 ----------------------------------------------------------------------------------------
     1      (1,1,1)               0.0000000      SURF                                    
     2      (1,1,2)               0.0000000      SURF                                    
     3      (1,1,3)               0.0000000      SURF                                    
     4      (1,1,4)               0.0000000      SURF                                    
     5      (1,1,5)               0.0000000      SURF                                    
     6      (1,1,6)               0.0000000      SURF                                    
     7      (1,1,7)               0.0000000      SURF                                    
     8      (1,1,8)               0.0000000      SURF                                    
     9      (1,1,9)               0.0000000      SURF                                    
     10     (1,1,10)              0.0000000      SURF                                    
     11     (1,2,1)               0.0000000      SURF                                    
     12     (1,2,2)               0.0000000      SURF                                    
     13     (1,2,3)               0.0000000      SURF                                    
     14     (1,2,4)               0.0000000      SURF                                    
     15     (1,2,5)               0.0000000      SURF                                    
     16     (1,2,6)               0.0000000      SURF                                    
     17     (1,2,7)               0.0000000      SURF                                    
     18     (1,2,8)               0.0000000      SURF                                    
     19     (1,2,9)               0.0000000      SURF                                    
     20     (1,2,10)              0.0000000      SURF                                    
     21     (1,3,1)               0.0000000      SURF                                    
     22     (1,3,2)               0.0000000      SURF                                    
     23     (1,3,3)               0.0000000      SURF                                    
     24     (1,3,4)               0.0000000      SURF                                    
     25     (1,3,5)               0.0000000      SURF                                    
     26     (1,3,6)               0.0000000      SURF                                    
     27     (1,3,7)               0.0000000      SURF                                    
     28     (1,3,8)               0.0000000      SURF                                    
     29     (1,3,9)               0.0000000      SURF                                    
     30     (1,3,10)              0.0000000      SURF                                    
     31     (1,4,1)               0.0000000      SURF                                    
     32     (1,4,2)               0.0000000      SURF                                    
     33     (1,4,3)               0.0000000      SURF                                    
     34     (1,4,4)               0.0000000      SURF                                    
     35     (1,4,5)               0.0000000      SURF                                    
     36     (1,4,6)               0.0000000      SURF                                    
     37     (1,4,7)               0.0000000      SURF                                    
     38     (1,4,8)               0.0000000      SURF                                    
     39     (1,4,9)               0.0000000      SURF                                    
     40     (1,4,10)              0.0000000      SURF                                    
     41     (1,5,1)               0.0000000      SURF                                    
     42     (1,5,2)               0.0000000      SURF                                    
     43     (1,5,3)               0.0000000      SURF                                    
     44     (1,5,4)               0.0000000      SURF                                    
     45     (1,5,5)               0.0000000      SURF                                    
     46     (1,5,6)               0.0000000      SURF                                    
     47     (1,5,7)               0.0000000      SURF                                    
     48     (1,5,8)               0.0000000      SURF                                    
     49     (1,5,9)               0.0000000      SURF                                    
     50     (1,5,10)              0.0000000      SURF                                    
     51     (1,6,1)               0.0000000      SURF                                    
     52     (1,6,2)               0.0000000      SURF                                    
     53     (1,6,3)               0.0000000      SURF                                    
     54     (1,6,4)               0.0000000      SURF                                    
     55     (1,6,5)               0.0000000      SURF                                    
     56     (1,6,6)               0.0000000      SURF                                    
     57     (1,6,7)              -7.55244400E-09 SURF                                    
     58     (1,6,8)               0.0000000      SURF                                    
     59     (1,6,9)               0.0000000      SURF                                    
     60     (1,6,10)              0.0000000      SURF                                    
     61     (1,7,1)               0.0000000      SURF                                    
     62     (1,7,2)               0.0000000      SURF                                    
     63     (1,7,3)               0.0000000      SURF                                    
     64     (1,7,4)               0.0000000      SURF                                    
     65     (1,7,5)               0.0000000      SURF                                    
     66     (1,7,6)               0.0000000      SURF                                    
     67     (1,7,7)               0.0000000      SURF                                    
     68     (1,7,8)               0.0000000      SURF                                    
     69     (1,7,9)               0.0000000      SURF                                    
     70     (1,7,10)              0.0000000      SURF                                    
     71     (1,8,1)               0.0000000      SURF                                    
     72     (1,8,2)               0.0000000      SURF                                    
     73     (1,8,3)               0.0000000      SURF                                    
     74     (1,8,4)               0.0000000      SURF                                    
     75     (1,8,5)               0.0000000      SURF                                    
     76     (1,8,6)               0.0000000      SURF                                    
     77     (1,8,7)               0.0000000      SURF                                    
     78     (1,8,8)               0.0000000      SURF                                    
     79     (1,8,9)               0.0000000      SURF                                    
     80     (1,8,10)              0.0000000      SURF                                    
     81     (1,9,1)               0.0000000      SURF                                    
     82     (1,9,2)               0.0000000      SURF                                    
     83     (1,9,3)               0.0000000      SURF                                    
     84     (1,9,4)               0.0000000      SURF                                    
     85     (1,9,5)               0.0000000      SURF                                    
     86     (1,9,6)               0.0000000      SURF                                    
     87     (1,9,7)               0.0000000      SURF                                    
     88     (1,9,8)               0.0000000      SURF                                    
     89     (1,9,9)               0.0000000      SURF                                    
     90     (1,9,10)              0.0000000      SURF                                    
     91     (1,10,1)              0.0000000      SURF                                    
     92     (1,10,2)              0.0000000      SURF                                    
     93     (1,10,3)              0.0000000      SURF                                    
     94     (1,10,4)              0.0000000      SURF                                    
     95     (1,10,5)              0.0000000      SURF                                    
     96     (1,10,6)              0.0000000      SURF                                    
     97     (1,10,7)             -3.69211193E-07 SURF                                    
     98     (1,10,8)              0.0000000      SURF                                    
     99     (1,10,9)              0.0000000      SURF                                    
    100     (1,10,10)             0.0000000      SURF                                    
    101     (1,11,1)              0.0000000      SURF                                    
    102     (1,11,2)              0.0000000      SURF                                    
    103     (1,11,3)              0.0000000      SURF                                    
    104     (1,11,4)              0.0000000      SURF                                    
    105     (1,11,5)              0.0000000      SURF                                    
    106     (1,11,6)              0.0000000      SURF                                    
    107     (1,11,7)              0.0000000      SURF                                    
    108     (1,11,8)              0.0000000      SURF                                    
    109     (1,11,9)              0.0000000      SURF                                    
    110     (1,11,10)             0.0000000      SURF                                    
    111     (1,12,1)              0.0000000      SURF                                    
    112     (1,12,2)              0.0000000      SURF                                    
    113     (1,12,3)              0.0000000      SURF                                    
    114     (1,12,4)              0.0000000      SURF                                    
    115     (1,12,5)              0.0000000      SURF                                    
    116     (1,12,6)              0.0000000      SURF                                    
    117     (1,12,7)              0.0000000      SURF                                    
    118     (1,12,8)              0.0000000      SURF                                    
    119     (1,12,9)              0.0000000      SURF                                    
    120     (1,12,10)             0.0000000      SURF                                    
    121     (1,13,1)              0.0000000      SURF                                    
    122     (1,13,2)              0.0000000      SURF                                    
    123     (1,13,3)              0.0000000      SURF                                    
    124     (1,13,4)              0.0000000      SURF                                    
    125     (1,13,5)              0.0000000      SURF                                    
    126     (1,13,6)              0.0000000      SURF                                    
    127     (1,13,7)              0.0000000      SURF                                    
    128     (1,13,8)              0.0000000      SURF                                    
    129     (1,13,9)              0.0000000      SURF                                    
    130     (1,13,10)             0.0000000      SURF                                    
    131     (1,14,1)              0.0000000      SURF                                    
    132     (1,14,2)              0.0000000      SURF                                    
    133     (1,14,3)              0.0000000      SURF                                    
    134     (1,14,4)              0.0000000      SURF                                    
    135     (1,14,5)              0.0000000      SURF                                    
    136     (1,14,6)              0.0000000      SURF                                    
    137     (1,14,7)              0.0000000      SURF                                    
    138     (1,14,8)              0.0000000      SURF                                    
    139     (1,14,9)              0.0000000      SURF                                    
    140     (1,14,10)             0.0000000      SURF                                    
    141     (1,15,1)              0.0000000      SURF                                    
    142     (1,15,2)              0.0000000      SURF                                    
    143     (1,15,3)              0.0000000      SURF                                    
    144     (1,15,4)              0.0000000      SURF                                    
    145     (1,15,5)              0.0000000      SURF                                    
    146     (1,15,6)              0.0000000      SURF                                    
    147     (1,15,7)              0.0000000      SURF                                    
    148     (1,15,8)              0.0000000      SURF                                    
    149     (1,15,9)              0.0000000      SURF                                    
    150     (1,15,10)             0.0000000      SURF                                    
 ----------------------------------------------------------------------------------------




 API PACKAGE (MAR) FLOW RATES   PERIOD      2   STEP       25
 -----------------------------------------------
   NUMBER   CELLID                    RATE      
 -----------------------------------------------
     1      (1,6,5)               31.763353     
     2      (1,6,6)               31.763353     
     3      (1,6,7)               31.763353     
     4      (1,10,5)              32.333808     
     5      (1,10,6)              32.333808     
     6      (1,10,7)              32.333808     
 -----------------------------------------------



1
  HEAD IN LAYER   1 AT END OF TIME STEP  25 IN STRESS PERIOD    2
  ---------------------------------------------------------------------------

            1           2           3           4           5           6           7           8           9          10
 ........................................................................................................................
   1   9.5510E-05  2.7070E-04  7.7197E-04  1.7659E-03  2.9920E-03  3.4980E-03  2.9927E-03  1.7699E-03  7.9011E-04  3.4317E-04
   2   3.1391E-04  9.3051E-04  2.7683E-03  6.5946E-03  1.1533E-02  1.3482E-02  1.1535E-02  6.6070E-03  2.8263E-03  1.1714E-03
   3   1.0415E-03  3.2289E-03  1.0044E-02  2.5062E-02  4.5640E-02  5.3095E-02  4.5647E-02  2.5100E-02  1.0232E-02  4.0364E-03
   4   2.7993E-03  9.1152E-03  2.9897E-02  7.9359E-02  0.1542      0.1764      0.1542      7.9457E-02  3.0388E-02  1.1307E-02
   5   5.5013E-03  1.8895E-02  6.6242E-02  0.1934      0.4301      0.4669      0.4301      0.1935      6.7177E-02  2.3240E-02
   6   6.3326E-03  2.2589E-02  8.5565E-02  0.2983       1.000      0.9223       1.000      0.2985      8.6622E-02  2.7608E-02
   7   9.3420E-04 -3.5163E-04 -1.7534E-02 -0.1212     -0.5385      -1.771     -0.5385     -0.1211     -1.7284E-02  2.5557E-04
   8  -3.6087E-03 -1.9432E-02 -0.1049     -0.5002      -2.143      -9.148      -2.143     -0.5003     -0.1053     -2.2526E-02
   9  -6.7104E-04 -4.4261E-03 -2.7048E-02 -0.1363     -0.5518      -1.784     -0.5518     -0.1363     -2.7114E-02 -5.0208E-03
  10   3.8946E-03  1.6532E-02  7.2251E-02  0.2813       1.000      0.9248       1.000      0.2814      7.2827E-02  1.9735E-02
  11   3.4392E-03  1.3587E-02  5.3467E-02  0.1716      0.4062      0.4408      0.4062      0.1717      5.3998E-02  1.6388E-02
  12   1.6416E-03  6.0698E-03  2.2147E-02  6.4316E-02  0.1330      0.1521      0.1330      6.4363E-02  2.2411E-02  7.3931E-03
  13   5.6130E-04  1.9598E-03  6.7401E-03  1.8311E-02  3.5353E-02  4.1210E-02  3.5356E-02  1.8328E-02  6.8335E-03  2.4074E-03
  14   1.5407E-04  5.1096E-04  1.6718E-03  4.3154E-03  7.9685E-03  9.3469E-03  7.9694E-03  4.3204E-03  1.6982E-03  6.3253E-04
  15   4.2136E-05  1.3274E-04  4.1404E-04  1.0210E-03  1.8186E-03  2.1358E-03  1.8189E-03  1.0224E-03  4.2151E-04  1.6561E-04

 HEAD WILL BE SAVED ON UNIT 1100 AT END OF TIME STEP   25, STRESS PERIOD    2


  VOLUME BUDGET FOR ENTIRE MODEL AT END OF TIME STEP   25, STRESS PERIOD   2
  ---------------------------------------------------------------------------------------------------

     CUMULATIVE VOLUME      L**3       RATES FOR THIS TIME STEP      L**3/T          PACKAGE NAME    
     ------------------                 ------------------------                     ----------------

           IN:                                      IN:
           ---                                      ---
              STO-SS =          16.3569                STO-SS =       3.7868E-02     STORAGE                          
              STO-SY =       42776.6944                STO-SY =          87.3186     STORAGE                          
                 WEL =           0.0000                   WEL =           0.0000     WEL-1                            
                 DRN =           0.0000                   DRN =           0.0000     DRN-0                            
                 API =       50190.6893                   API =         192.2915     MAR                              
                 CHD =       2.0279E-08                   CHD =           0.0000     CHD_0                            

            TOTAL IN =       92983.7405              TOTAL IN =         279.6480

          OUT:                                     OUT:
          ----                                     ----
              STO-SS =          13.6382                STO-SS =       2.2688E-02     STORAGE                          
              STO-SY =       26490.4483                STO-SY =          44.7012     STORAGE                          
                 WEL =       66479.6540                   WEL =         234.9241     WEL-1                            
                 DRN =       7.1012E-05                   DRN =       3.7676E-07     DRN-0                            
                 API =           0.0000                   API =           0.0000     MAR                              
                 CHD =       2.0705E-08                   CHD =           0.0000     CHD_0                            

           TOTAL OUT =       92983.7405             TOTAL OUT =         279.6480

            IN - OUT =      -5.3960E-07              IN - OUT =      -3.0524E-09

 PERCENT DISCREPANCY =          -0.00     PERCENT DISCREPANCY =          -0.00




         TIME SUMMARY AT END OF TIME STEP   25 IN STRESS PERIOD    2
                    SECONDS     MINUTES      HOURS       DAYS        YEARS
                    -----------------------------------------------------------
   TIME STEP LENGTH 8.64000E+05  14400.      240.00      10.000     2.73785E-02
 STRESS PERIOD TIME 2.16000E+07 3.60000E+05  6000.0      250.00     0.68446    
         TOTAL TIME 2.16864E+07 3.61440E+05  6024.0      251.00     0.68720    


end timestep


start timestep kper="2" kstp="26" mode="normal"

 UBDSV1 SAVING           STO-SS ON UNIT   1099 AT TIME STEP     26, STRESS PERIOD      2
 UBDSV1 SAVING           STO-SY ON UNIT   1099 AT TIME STEP     26, STRESS PERIOD      2
 UBDSV1 SAVING     FLOW-JA-FACE ON UNIT   1099 AT TIME STEP     26, STRESS PERIOD      2
 UBDSV06 SAVING       DATA-SPDIS IN MODEL GWF              PACKAGE NPF             CONNECTED TO MODEL GWF              PACKAGE NPF              ON UNIT   1099 AT TIME STEP     26, STRESS PERIOD      2
 UBDSV06 SAVING              WEL IN MODEL GWF              PACKAGE GWF             CONNECTED TO MODEL GWF              PACKAGE WEL-1            ON UNIT   1099 AT TIME STEP     26, STRESS PERIOD      2
 UBDSV06 SAVING              DRN IN MODEL GWF              PACKAGE GWF             CONNECTED TO MODEL GWF              PACKAGE DRN-0            ON UNIT   1099 AT TIME STEP     26, STRESS PERIOD      2
 UBDSV06 SAVING              API IN MODEL GWF              PACKAGE GWF             CONNECTED TO MODEL GWF              PACKAGE MAR              ON UNIT   1099 AT TIME STEP     26, STRESS PERIOD      2
 UBDSV06 SAVING              CHD IN MODEL GWF              PACKAGE GWF             CONNECTED TO MODEL GWF              PACKAGE CHD_0            ON UNIT   1099 AT TIME STEP     26, STRESS PERIOD      2

    CALCULATED INTERCELL FLOW FOR PERIOD 2 STEP 26
(1,1,1): (1,1,2) 2.086579E-03 (1,2,1) 2.596438E-03
(1,1,2): (1,1,1) -2.086579E-03 (1,1,3) 5.843561E-03 (1,2,2) 7.620591E-03
(1,1,3): (1,1,2) -5.843561E-03 (1,1,4) 1.132985E-02 (1,2,3) 2.250676E-02
(1,1,4): (1,1,3) -1.132985E-02 (1,1,5) 1.372925E-02 (1,2,4) 5.336659E-02
(1,1,5): (1,1,4) -1.372925E-02 (1,1,6) 5.672627E-03 (1,2,5) 9.312229E-02
(1,1,6): (1,1,5) -5.672627E-03 (1,1,7) -5.662389E-03 (1,2,6) 0.108610
(1,1,7): (1,1,6) 5.662389E-03 (1,1,8) -1.368755E-02 (1,2,7) 9.314202E-02
(1,1,8): (1,1,7) 1.368755E-02 (1,1,9) -1.115186E-02 (1,2,8) 5.347077E-02
(1,1,9): (1,1,8) 1.115186E-02 (1,1,10) -5.178324E-03 (1,2,9) 2.299075E-02
(1,1,10): (1,1,9) 5.178324E-03 (1,2,10) 9.608136E-03
(1,2,1): (1,1,1) -2.596438E-03 (1,2,2) 7.110707E-03 (1,3,1) 8.419653E-03
(1,2,2): (1,1,2) -7.620591E-03 (1,2,1) -7.110707E-03 (1,2,3) 2.072947E-02 (1,3,2) 2.582270E-02
(1,2,3): (1,1,3) -2.250676E-02 (1,2,2) -2.072947E-02 (1,2,4) 4.218623E-02 (1,3,3) 7.979900E-02
(1,2,4): (1,1,4) -5.336659E-02 (1,2,3) -4.218623E-02 (1,2,5) 5.346924E-02 (1,3,4) 0.198705
(1,2,5): (1,1,5) -9.312229E-02 (1,2,4) -5.346924E-02 (1,2,6) 2.114710E-02 (1,3,5) 0.362533
(1,2,6): (1,1,6) -0.108610 (1,2,5) -2.114710E-02 (1,2,7) -2.111714E-02 (1,3,6) 0.420355
(1,2,7): (1,1,7) -9.314202E-02 (1,2,6) 2.111714E-02 (1,2,8) -5.334307E-02 (1,3,7) 0.362593
(1,2,8): (1,1,8) -5.347077E-02 (1,2,7) 5.334307E-02 (1,2,9) -4.162828E-02 (1,3,8) 0.199026
(1,2,9): (1,1,9) -2.299075E-02 (1,2,8) 4.162828E-02 (1,2,10) -1.856035E-02 (1,3,9) 8.133237E-02
(1,2,10): (1,1,10) -9.608136E-03 (1,2,9) 1.856035E-02 (1,3,10) 3.233533E-02
(1,3,1): (1,2,1) -8.419653E-03 (1,3,2) 2.451353E-02 (1,4,1) 1.970906E-02
(1,3,2): (1,2,2) -2.582270E-02 (1,3,1) -2.451353E-02 (1,3,3) 7.470302E-02 (1,4,2) 6.407834E-02
(1,3,3): (1,2,3) -7.979900E-02 (1,3,2) -7.470302E-02 (1,3,4) 0.161048 (1,4,3) 0.211310
(1,3,4): (1,2,4) -0.198705 (1,3,3) -0.161048 (1,3,5) 0.217062 (1,4,4) 0.569385
(1,3,5): (1,2,5) -0.362533 (1,3,4) -0.217062 (1,3,6) 7.877428E-02 (1,4,5) 1.13216
(1,3,6): (1,2,6) -0.420355 (1,3,5) -7.877428E-02 (1,3,7) -7.868454E-02 (1,4,6) 1.28474
(1,3,7): (1,2,7) -0.362593 (1,3,6) 7.868454E-02 (1,3,8) -0.216674 (1,4,7) 1.13229
(1,3,8): (1,2,8) -0.199026 (1,3,7) 0.216674 (1,3,9) -0.159276 (1,4,8) 0.570095
(1,3,9): (1,2,9) -8.133237E-02 (1,3,8) 0.159276 (1,3,10) -6.755065E-02 (1,4,9) 0.214796
(1,3,10): (1,2,10) -3.233533E-02 (1,3,9) 6.755065E-02 (1,4,10) 7.951551E-02
(1,4,1): (1,3,1) -1.970906E-02 (1,4,2) 6.888494E-02 (1,5,1) 2.914498E-02
(1,4,2): (1,3,2) -6.407834E-02 (1,4,1) -6.888494E-02 (1,4,3) 0.221951 (1,5,2) 0.102519
(1,4,3): (1,3,3) -0.211310 (1,4,2) -0.221951 (1,4,4) 0.518945 (1,5,3) 0.374300
(1,4,4): (1,3,4) -0.569385 (1,4,3) -0.518945 (1,4,5) 0.777921 (1,5,4) 1.17099
(1,4,5): (1,3,5) -1.13216 (1,4,4) -0.777921 (1,4,6) 0.229829 (1,5,5) 2.88011
(1,4,6): (1,3,6) -1.28474 (1,4,5) -0.229829 (1,4,7) -0.229609 (1,5,6) 3.03180
(1,4,7): (1,3,7) -1.13229 (1,4,6) 0.229609 (1,4,8) -0.776950 (1,5,7) 2.88029
(1,4,8): (1,3,8) -0.570095 (1,4,7) 0.776950 (1,4,9) -0.514380 (1,5,8) 1.17197
(1,4,9): (1,3,9) -0.214796 (1,4,8) 0.514380 (1,4,10) -0.202815 (1,5,9) 0.379261
(1,4,10): (1,3,10) -7.951551E-02 (1,4,9) 0.202815 (1,5,10) 0.125663
(1,5,1): (1,4,1) -2.914498E-02 (1,5,2) 0.142288 (1,6,1) 7.329662E-03
(1,5,2): (1,4,2) -0.102519 (1,5,1) -0.142288 (1,5,3) 0.494052 (1,6,2) 3.256070E-02
(1,5,3): (1,4,3) -0.374300 (1,5,2) -0.494052 (1,5,4) 1.31675 (1,6,3) 0.177092
(1,5,4): (1,4,4) -1.17099 (1,5,3) -1.31675 (1,5,5) 2.48087 (1,6,4) 1.03036
(1,5,5): (1,4,5) -2.88011 (1,5,4) -2.48087 (1,5,6) 0.378094 (1,6,5) 6.20134
(1,5,6): (1,4,6) -3.03180 (1,5,5) -0.378094 (1,5,7) -0.377692 (1,6,6) 4.87006
(1,5,7): (1,4,7) -2.88029 (1,5,6) 0.377692 (1,5,8) -2.47908 (1,6,7) 6.20140
(1,5,8): (1,4,8) -1.17197 (1,5,7) 2.47908 (1,5,9) -1.30812 (1,6,8) 1.03058
(1,5,9): (1,4,9) -0.379261 (1,5,8) 1.30812 (1,5,10) -0.456606 (1,6,9) 0.178218
(1,5,10): (1,4,10) -0.125663 (1,5,9) 0.456606 (1,6,10) 3.849045E-02
(1,6,1): (1,5,1) -7.329662E-03 (1,6,2) 0.167553 (1,7,1) -5.951990E-02
(1,6,2): (1,5,2) -3.256070E-02 (1,6,1) -0.167553 (1,6,3) 0.639239 (1,7,2) -0.246520
(1,6,3): (1,5,3) -0.177092 (1,6,2) -0.639239 (1,6,4) 2.17922 (1,7,3) -1.09078
(1,6,4): (1,5,4) -1.03036 (1,6,3) -2.17922 (1,6,5) 7.71569 (1,7,4) -4.45165
(1,6,5): (1,5,5) -6.20134 (1,6,4) -7.71569 (1,6,6) -0.897735 (1,7,5) -17.2245
(1,6,6): (1,5,6) -4.87006 (1,6,5) 0.897735 (1,6,7) 0.898197 (1,7,6) -29.7513
(1,6,7): (1,5,7) -6.20140 (1,6,6) -0.898197 (1,6,8) -7.71365 (1,7,7) -17.2248
(1,6,8): (1,5,8) -1.03058 (1,6,7) 7.71365 (1,6,9) -2.16959 (1,7,8) -4.45335
(1,6,9): (1,5,9) -0.178218 (1,6,8) 2.16959 (1,6,10) -0.596907 (1,7,9) -1.10005
(1,6,10): (1,5,10) -3.849045E-02 (1,6,9) 0.596907 (1,7,10) -0.295122
(1,7,1): (1,6,1) 5.951990E-02 (1,7,2) -1.930441E-02 (1,8,1) -4.947073E-02
(1,7,2): (1,6,2) 0.246520 (1,7,1) 1.930441E-02 (1,7,3) -0.201691 (1,8,2) -0.202341
(1,7,3): (1,6,3) 1.09078 (1,7,2) 0.201691 (1,7,4) -1.12279 (1,8,3) -0.905885
(1,7,4): (1,6,4) 4.45165 (1,7,3) 1.12279 (1,7,5) -4.26399 (1,8,4) -3.82410
(1,7,5): (1,6,5) 17.2245 (1,7,4) 4.26399 (1,7,6) -11.7043 (1,8,5) -15.2742
(1,7,6): (1,6,6) 29.7513 (1,7,5) 11.7043 (1,7,7) 11.7044 (1,8,6) -60.2537
(1,7,7): (1,6,7) 17.2248 (1,7,6) -11.7044 (1,7,8) 4.26459 (1,8,7) -15.2744
(1,7,8): (1,6,8) 4.45335 (1,7,7) -4.26459 (1,7,9) 1.12469 (1,8,8) -3.82552
(1,7,9): (1,6,9) 1.10005 (1,7,8) -1.12469 (1,7,10) 0.204471 (1,8,9) -0.913646
(1,7,10): (1,6,10) 0.295122 (1,7,9) -0.204471 (1,8,10) -0.242415
(1,8,1): (1,7,1) 4.947073E-02 (1,8,2) -0.172129 (1,9,1) 3.261024E-02
(1,8,2): (1,7,2) 0.202341 (1,8,1) 0.172129 (1,8,3) -0.905231 (1,9,2) 0.161239
(1,8,3): (1,7,3) 0.905885 (1,8,2) 0.905231 (1,8,4) -4.04745 (1,9,3) 0.813059
(1,8,4): (1,7,4) 3.82410 (1,8,3) 4.04745 (1,8,5) -15.7690 (1,9,4) 3.67937
(1,8,5): (1,7,5) 15.2742 (1,8,4) 15.7690 (1,8,6) -54.5137 (1,9,5) 15.1411
(1,8,6): (1,7,6) 60.2537 (1,8,5) 54.5137 (1,8,7) 54.5136 (1,9,6) 60.0727
(1,8,7): (1,7,7) 15.2744 (1,8,6) -54.5136 (1,8,8) 15.7683 (1,9,7) 15.1412
(1,8,8): (1,7,8) 3.82552 (1,8,7) -15.7683 (1,8,9) 4.04283 (1,9,8) 3.67998
(1,8,9): (1,7,9) 0.913646 (1,8,8) -4.04283 (1,8,10) 0.875447 (1,9,9) 0.817385
(1,8,10): (1,7,10) 0.242415 (1,8,9) -0.875447 (1,9,10) 0.188806
(1,9,1): (1,8,1) -3.261024E-02 (1,9,2) -4.348620E-02 (1,10,1) 5.081142E-02
(1,9,2): (1,8,2) -0.161239 (1,9,1) 4.348620E-02 (1,9,3) -0.252811 (1,10,2) 0.226435
(1,9,3): (1,8,3) -0.813059 (1,9,2) 0.252811 (1,9,4) -1.17067 (1,10,3) 1.05206
(1,9,4): (1,8,4) -3.67937 (1,9,3) 1.17067 (1,9,5) -4.23733 (1,10,4) 4.42527
(1,9,5): (1,8,5) -15.1411 (1,9,4) 4.23733 (1,9,6) -11.6855 (1,10,5) 17.3573
(1,9,6): (1,8,6) -60.0727 (1,9,5) 11.6855 (1,9,7) 11.6855 (1,10,6) 29.9135
(1,9,7): (1,8,7) -15.1412 (1,9,6) -11.6855 (1,9,8) 4.23727 (1,10,7) 17.3575
(1,9,8): (1,8,8) -3.67998 (1,9,7) -4.23727 (1,9,9) 1.16993 (1,10,8) 4.42650
(1,9,9): (1,8,9) -0.817385 (1,9,8) -1.16993 (1,9,10) 0.246504 (1,10,9) 1.05949
(1,9,10): (1,8,10) -0.188806 (1,9,9) -0.246504 (1,10,10) 0.268596
(1,10,1): (1,9,1) -5.081142E-02 (1,10,2) 0.131991 (1,11,1) -3.741430E-03
(1,10,2): (1,9,2) -0.226435 (1,10,1) -0.131991 (1,10,3) 0.569538 (1,11,2) -2.590835E-02
(1,10,3): (1,9,3) -1.05206 (1,10,2) -0.569538 (1,10,4) 2.14401 (1,11,3) -0.173741
(1,10,4): (1,9,4) -4.42527 (1,10,3) -2.14401 (1,10,5) 7.89225 (1,11,4) -1.07887
(1,10,5): (1,9,5) -17.3573 (1,10,4) -7.89225 (1,10,6) -0.869738 (1,11,5) -6.44935
(1,10,6): (1,9,6) -29.9135 (1,10,5) 0.869738 (1,10,7) 0.869941 (1,11,6) -5.16540
(1,10,7): (1,9,7) -17.3575 (1,10,6) -0.869941 (1,10,8) -7.89124 (1,11,7) -6.44936
(1,10,8): (1,9,8) -4.42650 (1,10,7) 7.89124 (1,10,9) -2.13846 (1,11,8) -1.07890
(1,10,9): (1,9,9) -1.05949 (1,10,8) 2.13846 (1,10,10) -0.540968 (1,11,9) -0.174095
(1,10,10): (1,9,10) -0.268596 (1,10,9) 0.540968 (1,11,10) -2.926013E-02
(1,11,1): (1,10,1) 3.741430E-03 (1,11,2) 0.109801 (1,12,1) -1.982774E-02
(1,11,2): (1,10,2) 2.590835E-02 (1,11,1) -0.109801 (1,11,3) 0.421129 (1,12,2) -8.015247E-02
(1,11,3): (1,10,3) 0.173741 (1,11,2) -0.421129 (1,11,4) 1.22980 (1,12,3) -0.326240
(1,11,4): (1,10,4) 1.07887 (1,11,3) -1.22980 (1,11,5) 2.45863 (1,12,4) -1.10753
(1,11,5): (1,10,5) 6.44935 (1,11,4) -2.45863 (1,11,6) 0.357904 (1,12,5) -2.85479
(1,11,6): (1,10,6) 5.16540 (1,11,5) -0.357904 (1,11,7) -0.357719 (1,12,6) -3.01496
(1,11,7): (1,10,7) 6.44936 (1,11,6) 0.357719 (1,11,8) -2.45768 (1,12,7) -2.85488
(1,11,8): (1,10,8) 1.07890 (1,11,7) 2.45768 (1,11,9) -1.22463 (1,12,8) -1.10805
(1,11,9): (1,10,9) 0.174095 (1,11,8) 1.22463 (1,11,10) -0.395610 (1,12,9) -0.329291
(1,11,10): (1,10,10) 2.926013E-02 (1,11,9) 0.395610 (1,12,10) -9.638796E-02
(1,12,1): (1,11,1) 1.982774E-02 (1,12,2) 4.945844E-02 (1,13,1) -1.245988E-02
(1,12,2): (1,11,2) 8.015247E-02 (1,12,1) -4.945844E-02 (1,12,3) 0.174811 (1,13,2) -4.578758E-02
(1,12,3): (1,11,3) 0.326240 (1,12,2) -0.174811 (1,12,4) 0.447595 (1,13,3) -0.166940
(1,12,4): (1,11,4) 1.10753 (1,12,3) -0.447595 (1,12,5) 0.717653 (1,13,4) -0.488308
(1,12,5): (1,11,5) 2.85479 (1,12,4) -0.717653 (1,12,6) 0.201408 (1,13,5) -1.02543
(1,12,6): (1,11,6) 3.01496 (1,12,5) -0.201408 (1,12,7) -0.201310 (1,13,6) -1.16504
(1,12,7): (1,11,7) 2.85488 (1,12,6) 0.201310 (1,12,8) -0.717161 (1,13,7) -1.02549
(1,12,8): (1,11,8) 1.10805 (1,12,7) 0.717161 (1,12,9) -0.444993 (1,13,8) -0.488674
(1,12,9): (1,11,9) 0.329291 (1,12,8) 0.444993 (1,12,10) -0.162555 (1,13,9) -0.168962
(1,12,10): (1,11,10) 9.638796E-02 (1,12,9) 0.162555 (1,13,10) -5.582488E-02
(1,13,1): (1,12,1) 1.245988E-02 (1,13,2) 1.612951E-02 (1,14,1) -4.870999E-03
(1,13,2): (1,12,2) 4.578758E-02 (1,13,1) -1.612951E-02 (1,13,3) 5.364935E-02 (1,14,2) -1.674647E-02
(1,13,3): (1,12,3) 0.166940 (1,13,2) -5.364935E-02 (1,13,4) 0.126356 (1,14,3) -5.692486E-02
(1,13,4): (1,12,4) 0.488308 (1,13,3) -0.126356 (1,13,5) 0.182127 (1,14,4) -0.153462
(1,13,5): (1,12,5) 1.02543 (1,13,4) -0.182127 (1,13,6) 6.308076E-02 (1,14,5) -0.295418
(1,13,6): (1,12,6) 1.16504 (1,13,5) -6.308076E-02 (1,13,7) -6.304299E-02 (1,14,6) -0.343303
(1,13,7): (1,12,7) 1.02549 (1,13,6) 6.304299E-02 (1,13,8) -0.181943 (1,14,7) -0.295444
(1,13,8): (1,12,8) 0.488674 (1,13,7) 0.181943 (1,13,9) -0.125418 (1,14,8) -0.153617
(1,13,9): (1,12,9) 0.168962 (1,13,8) 0.125418 (1,13,10) -4.942512E-02 (1,14,9) -5.774573E-02
(1,13,10): (1,12,10) 5.582488E-02 (1,13,9) 4.942512E-02 (1,14,10) -2.061916E-02
(1,14,1): (1,13,1) 4.870999E-03 (1,14,2) 4.254112E-03 (1,15,1) -1.381362E-03
(1,14,2): (1,13,2) 1.674647E-02 (1,14,1) -4.254112E-03 (1,14,3) 1.347227E-02 (1,15,2) -4.515319E-03
(1,14,3): (1,13,3) 5.692486E-02 (1,14,2) -1.347227E-02 (1,14,4) 2.984524E-02 (1,15,3) -1.459764E-02
(1,14,4): (1,13,4) 0.153462 (1,14,3) -2.984524E-02 (1,14,5) 4.033053E-02 (1,15,4) -3.732345E-02
(1,14,5): (1,13,5) 0.295418 (1,14,4) -4.033053E-02 (1,14,6) 1.532804E-02 (1,15,5) -6.850250E-02
(1,14,6): (1,13,6) 0.343303 (1,14,5) -1.532804E-02 (1,14,7) -1.531631E-02 (1,15,6) -8.017385E-02
(1,14,7): (1,13,7) 0.295444 (1,14,6) 1.531631E-02 (1,14,8) -4.027516E-02 (1,15,7) -6.851055E-02
(1,14,8): (1,13,8) 0.153617 (1,14,7) 4.027516E-02 (1,14,9) -2.957359E-02 (1,15,8) -3.737017E-02
(1,14,9): (1,13,9) 5.774573E-02 (1,14,8) 2.957359E-02 (1,14,10) -1.230164E-02 (1,15,9) -1.483738E-02
(1,14,10): (1,13,10) 2.061916E-02 (1,14,9) 1.230164E-02 (1,15,10) -5.601775E-03
(1,15,1): (1,14,1) 1.381362E-03 (1,15,2) 1.120164E-03
(1,15,2): (1,14,2) 4.515319E-03 (1,15,1) -1.120164E-03 (1,15,3) 3.390061E-03
(1,15,3): (1,14,3) 1.459764E-02 (1,15,2) -3.390061E-03 (1,15,4) 7.121139E-03
(1,15,4): (1,14,4) 3.732345E-02 (1,15,3) -7.121139E-03 (1,15,5) 9.160244E-03
(1,15,5): (1,14,5) 6.850250E-02 (1,15,4) -9.160244E-03 (1,15,6) 3.664232E-03
(1,15,6): (1,14,6) 8.017385E-02 (1,15,5) -3.664232E-03 (1,15,7) -3.660552E-03
(1,15,7): (1,14,7) 6.851055E-02 (1,15,6) 3.660552E-03 (1,15,8) -9.143550E-03
(1,15,8): (1,14,8) 3.737017E-02 (1,15,7) 9.143550E-03 (1,15,9) -7.042554E-03
(1,15,9): (1,14,9) 1.483738E-02 (1,15,8) 7.042554E-03 (1,15,10) -3.066271E-03
(1,15,10): (1,14,10) 5.601775E-03 (1,15,9) 3.066271E-03

 WEL PACKAGE (WEL-1) FLOW RATES   PERIOD      2   STEP       26
 ----------------------------------------------------------------------------------------
   NUMBER   CELLID                    RATE       NAME                                    
 ----------------------------------------------------------------------------------------
     1      (1,8,6)              -231.76620      WEL                                     
 ----------------------------------------------------------------------------------------




 DRN PACKAGE (DRN-0) FLOW RATES   PERIOD      2   STEP       26
 ----------------------------------------------------------------------------------------
   NUMBER   CELLID                    RATE       NAME                                    
 ----------------------------------------------------------------------------------------
     1      (1,1,1)               0.0000000      SURF                                    
     2      (1,1,2)               0.0000000      SURF                                    
     3      (1,1,3)               0.0000000      SURF                                    
     4      (1,1,4)               0.0000000      SURF                                    
     5      (1,1,5)               0.0000000      SURF                                    
     6      (1,1,6)               0.0000000      SURF                                    
     7      (1,1,7)               0.0000000      SURF                                    
     8      (1,1,8)               0.0000000      SURF                                    
     9      (1,1,9)               0.0000000      SURF                                    
     10     (1,1,10)              0.0000000      SURF                                    
     11     (1,2,1)               0.0000000      SURF                                    
     12     (1,2,2)               0.0000000      SURF                                    
     13     (1,2,3)               0.0000000      SURF                                    
     14     (1,2,4)               0.0000000      SURF                                    
     15     (1,2,5)               0.0000000      SURF                                    
     16     (1,2,6)               0.0000000      SURF                                    
     17     (1,2,7)               0.0000000      SURF                                    
     18     (1,2,8)               0.0000000      SURF                                    
     19     (1,2,9)               0.0000000      SURF                                    
     20     (1,2,10)              0.0000000      SURF                                    
     21     (1,3,1)               0.0000000      SURF                                    
     22     (1,3,2)               0.0000000      SURF                                    
     23     (1,3,3)               0.0000000      SURF                                    
     24     (1,3,4)               0.0000000      SURF                                    
     25     (1,3,5)               0.0000000      SURF                                    
     26     (1,3,6)               0.0000000      SURF                                    
     27     (1,3,7)               0.0000000      SURF                                    
     28     (1,3,8)               0.0000000      SURF                                    
     29     (1,3,9)               0.0000000      SURF                                    
     30     (1,3,10)              0.0000000      SURF                                    
     31     (1,4,1)               0.0000000      SURF                                    
     32     (1,4,2)               0.0000000      SURF                                    
     33     (1,4,3)               0.0000000      SURF                                    
     34     (1,4,4)               0.0000000      SURF                                    
     35     (1,4,5)               0.0000000      SURF                                    
     36     (1,4,6)               0.0000000      SURF                                    
     37     (1,4,7)               0.0000000      SURF                                    
     38     (1,4,8)               0.0000000      SURF                                    
     39     (1,4,9)               0.0000000      SURF                                    
     40     (1,4,10)              0.0000000      SURF                                    
     41     (1,5,1)               0.0000000      SURF                                    
     42     (1,5,2)               0.0000000      SURF                                    
     43     (1,5,3)               0.0000000      SURF                                    
     44     (1,5,4)               0.0000000      SURF                                    
     45     (1,5,5)               0.0000000      SURF                                    
     46     (1,5,6)               0.0000000      SURF                                    
     47     (1,5,7)               0.0000000      SURF                                    
     48     (1,5,8)               0.0000000      SURF                                    
     49     (1,5,9)               0.0000000      SURF                                    
     50     (1,5,10)              0.0000000      SURF                                    
     51     (1,6,1)               0.0000000      SURF                                    
     52     (1,6,2)               0.0000000      SURF                                    
     53     (1,6,3)               0.0000000      SURF                                    
     54     (1,6,4)               0.0000000      SURF                                    
     55     (1,6,5)               0.0000000      SURF                                    
     56     (1,6,6)               0.0000000      SURF                                    
     57     (1,6,7)              -7.90168997E-09 SURF                                    
     58     (1,6,8)               0.0000000      SURF                                    
     59     (1,6,9)               0.0000000      SURF                                    
     60     (1,6,10)              0.0000000      SURF                                    
     61     (1,7,1)               0.0000000      SURF                                    
     62     (1,7,2)               0.0000000      SURF                                    
     63     (1,7,3)               0.0000000      SURF                                    
     64     (1,7,4)               0.0000000      SURF                                    
     65     (1,7,5)               0.0000000      SURF                                    
     66     (1,7,6)               0.0000000      SURF                                    
     67     (1,7,7)               0.0000000      SURF                                    
     68     (1,7,8)               0.0000000      SURF                                    
     69     (1,7,9)               0.0000000      SURF                                    
     70     (1,7,10)              0.0000000      SURF                                    
     71     (1,8,1)               0.0000000      SURF                                    
     72     (1,8,2)               0.0000000      SURF                                    
     73     (1,8,3)               0.0000000      SURF                                    
     74     (1,8,4)               0.0000000      SURF                                    
     75     (1,8,5)               0.0000000      SURF                                    
     76     (1,8,6)               0.0000000      SURF                                    
     77     (1,8,7)               0.0000000      SURF                                    
     78     (1,8,8)               0.0000000      SURF                                    
     79     (1,8,9)               0.0000000      SURF                                    
     80     (1,8,10)              0.0000000      SURF                                    
     81     (1,9,1)               0.0000000      SURF                                    
     82     (1,9,2)               0.0000000      SURF                                    
     83     (1,9,3)               0.0000000      SURF                                    
     84     (1,9,4)               0.0000000      SURF                                    
     85     (1,9,5)               0.0000000      SURF                                    
     86     (1,9,6)               0.0000000      SURF                                    
     87     (1,9,7)               0.0000000      SURF                                    
     88     (1,9,8)               0.0000000      SURF                                    
     89     (1,9,9)               0.0000000      SURF                                    
     90     (1,9,10)              0.0000000      SURF                                    
     91     (1,10,1)              0.0000000      SURF                                    
     92     (1,10,2)              0.0000000      SURF                                    
     93     (1,10,3)              0.0000000      SURF                                    
     94     (1,10,4)              0.0000000      SURF                                    
     95     (1,10,5)              0.0000000      SURF                                    
     96     (1,10,6)              0.0000000      SURF                                    
     97     (1,10,7)             -3.81623977E-07 SURF                                    
     98     (1,10,8)              0.0000000      SURF                                    
     99     (1,10,9)              0.0000000      SURF                                    
    100     (1,10,10)             0.0000000      SURF                                    
    101     (1,11,1)              0.0000000      SURF                                    
    102     (1,11,2)              0.0000000      SURF                                    
    103     (1,11,3)              0.0000000      SURF                                    
    104     (1,11,4)              0.0000000      SURF                                    
    105     (1,11,5)              0.0000000      SURF                                    
    106     (1,11,6)              0.0000000      SURF                                    
    107     (1,11,7)              0.0000000      SURF                                    
    108     (1,11,8)              0.0000000      SURF                                    
    109     (1,11,9)              0.0000000      SURF                                    
    110     (1,11,10)             0.0000000      SURF                                    
    111     (1,12,1)              0.0000000      SURF                                    
    112     (1,12,2)              0.0000000      SURF                                    
    113     (1,12,3)              0.0000000      SURF                                    
    114     (1,12,4)              0.0000000      SURF                                    
    115     (1,12,5)              0.0000000      SURF                                    
    116     (1,12,6)              0.0000000      SURF                                    
    117     (1,12,7)              0.0000000      SURF                                    
    118     (1,12,8)              0.0000000      SURF                                    
    119     (1,12,9)              0.0000000      SURF                                    
    120     (1,12,10)             0.0000000      SURF                                    
    121     (1,13,1)              0.0000000      SURF                                    
    122     (1,13,2)              0.0000000      SURF                                    
    123     (1,13,3)              0.0000000      SURF                                    
    124     (1,13,4)              0.0000000      SURF                                    
    125     (1,13,5)              0.0000000      SURF                                    
    126     (1,13,6)              0.0000000      SURF                                    
    127     (1,13,7)              0.0000000      SURF                                    
    128     (1,13,8)              0.0000000      SURF                                    
    129     (1,13,9)              0.0000000      SURF                                    
    130     (1,13,10)             0.0000000      SURF                                    
    131     (1,14,1)              0.0000000      SURF                                    
    132     (1,14,2)              0.0000000      SURF                                    
    133     (1,14,3)              0.0000000      SURF                                    
    134     (1,14,4)              0.0000000      SURF                                    
    135     (1,14,5)              0.0000000      SURF                                    
    136     (1,14,6)              0.0000000      SURF                                    
    137     (1,14,7)              0.0000000      SURF                                    
    138     (1,14,8)              0.0000000      SURF                                    
    139     (1,14,9)              0.0000000      SURF                                    
    140     (1,14,10)             0.0000000      SURF                                    
    141     (1,15,1)              0.0000000      SURF                                    
    142     (1,15,2)              0.0000000      SURF                                    
    143     (1,15,3)              0.0000000      SURF                                    
    144     (1,15,4)              0.0000000      SURF                                    
    145     (1,15,5)              0.0000000      SURF                                    
    146     (1,15,6)              0.0000000      SURF                                    
    147     (1,15,7)              0.0000000      SURF                                    
    148     (1,15,8)              0.0000000      SURF                                    
    149     (1,15,9)              0.0000000      SURF                                    
    150     (1,15,10)             0.0000000      SURF                                    
 ----------------------------------------------------------------------------------------




 API PACKAGE (MAR) FLOW RATES   PERIOD      2   STEP       26
 -----------------------------------------------
   NUMBER   CELLID                    RATE      
 -----------------------------------------------
     1      (1,6,5)               32.038057     
     2      (1,6,6)               32.038057     
     3      (1,6,7)               32.038057     
     4      (1,10,5)              32.568068     
     5      (1,10,6)              32.568068     
     6      (1,10,7)              32.568068     
 -----------------------------------------------



1
  HEAD IN LAYER   1 AT END OF TIME STEP  26 IN STRESS PERIOD    2
  ---------------------------------------------------------------------------

            1           2           3           4           5           6           7           8           9          10
 ........................................................................................................................
   1   1.1891E-04  3.2756E-04  9.1187E-04  2.0446E-03  3.4171E-03  3.9841E-03  3.4181E-03  2.0498E-03  9.3485E-04  4.1707E-04
   2   3.7855E-04  1.0895E-03  3.1618E-03  7.3773E-03  1.2717E-02  1.4829E-02  1.2720E-02  7.3929E-03  3.2332E-03  1.3778E-03
   3   1.2204E-03  3.6709E-03  1.1133E-02  2.7194E-02  4.8795E-02  5.6628E-02  4.8804E-02  2.7241E-02  1.1357E-02  4.6098E-03
   4   3.1907E-03  1.0072E-02  3.2196E-02  8.3660E-02  0.1602      0.1828      0.1602      8.3777E-02  3.2767E-02  1.2551E-02
   5   6.1034E-03  2.0303E-02  6.9368E-02  0.1985      0.4362      0.4723      0.4362      0.1987      7.0428E-02  2.5086E-02
   6   6.8359E-03  2.3552E-02  8.6925E-02  0.2985       1.000      0.9183       1.000      0.2988      8.8094E-02  2.8924E-02
   7   8.8795E-04 -1.0423E-03 -2.1214E-02 -0.1337     -0.5659      -1.807     -0.5659     -0.1337     -2.0951E-02 -5.0287E-04
   8  -4.0587E-03 -2.1279E-02 -0.1120     -0.5213      -2.185      -9.160      -2.185     -0.5214     -0.1125     -2.4746E-02
   9  -7.9740E-04 -5.1464E-03 -3.0440E-02 -0.1479     -0.5780      -1.818     -0.5780     -0.1479     -3.0519E-02 -5.8539E-03
  10   4.2816E-03  1.7458E-02  7.3993E-02  0.2825       1.000      0.9209       1.000      0.2826      7.4645E-02  2.0950E-02
  11   3.9076E-03  1.4871E-02  5.6747E-02  0.1776      0.4137      0.4479      0.4137      0.1777      5.7365E-02  1.8030E-02
  12   1.9256E-03  6.8680E-03  2.4307E-02  6.8761E-02  0.1395      0.1594      0.1395      6.8819E-02  2.4624E-02  8.4082E-03
  13   6.7984E-04  2.2924E-03  7.6532E-03  2.0263E-02  3.8406E-02  4.4686E-02  3.8410E-02  2.0285E-02  7.7691E-03  2.8304E-03
  14   1.9277E-04  6.1816E-04  1.9651E-03  4.9482E-03  8.9776E-03  1.0509E-02  8.9788E-03  4.9549E-03  1.9990E-03  7.6906E-04
  15   5.4637E-05  1.6665E-04  5.0564E-04  1.2177E-03  2.1335E-03  2.4998E-03  2.1339E-03  1.2197E-03  5.1554E-04  2.0892E-04

 HEAD WILL BE SAVED ON UNIT 1100 AT END OF TIME STEP   26, STRESS PERIOD    2


  VOLUME BUDGET FOR ENTIRE MODEL AT END OF TIME STEP   26, STRESS PERIOD   2
  ---------------------------------------------------------------------------------------------------

     CUMULATIVE VOLUME      L**3       RATES FOR THIS TIME STEP      L**3/T          PACKAGE NAME    
     ------------------                 ------------------------                     ----------------

           IN:                                      IN:
           ---                                      ---
              STO-SS =          16.7134                STO-SS =       3.5650E-02     STORAGE                          
              STO-SY =       43589.2519                STO-SY =          81.2558     STORAGE                          
                 WEL =           0.0000                   WEL =           0.0000     WEL-1                            
                 DRN =           0.0000                   DRN =           0.0000     DRN-0                            
                 API =       52128.8731                   API =         193.8184     MAR                              
                 CHD =       2.0279E-08                   CHD =           0.0000     CHD_0                            

            TOTAL IN =       95734.8383              TOTAL IN =         275.1098

          OUT:                                     OUT:
          ----                                     ----
              STO-SS =          13.8580                STO-SS =       2.1985E-02     STORAGE                          
              STO-SY =       26923.6642                STO-SY =          43.3216     STORAGE                          
                 WEL =       68797.3159                   WEL =         231.7662     WEL-1                            
                 DRN =       7.4907E-05                   DRN =       3.8953E-07     DRN-0                            
                 API =           0.0000                   API =           0.0000     MAR                              
                 CHD =       2.0705E-08                   CHD =           0.0000     CHD_0                            

           TOTAL OUT =       95734.8383             TOTAL OUT =         275.1098

            IN - OUT =      -5.7017E-07              IN - OUT =      -3.0576E-09

 PERCENT DISCREPANCY =          -0.00     PERCENT DISCREPANCY =          -0.00




         TIME SUMMARY AT END OF TIME STEP   26 IN STRESS PERIOD    2
                    SECONDS     MINUTES      HOURS       DAYS        YEARS
                    -----------------------------------------------------------
   TIME STEP LENGTH 8.64000E+05  14400.      240.00      10.000     2.73785E-02
 STRESS PERIOD TIME 2.24640E+07 3.74400E+05  6240.0      260.00     0.71184    
         TOTAL TIME 2.25504E+07 3.75840E+05  6264.0      261.00     0.71458    


end timestep


start timestep kper="2" kstp="27" mode="normal"

 UBDSV1 SAVING           STO-SS ON UNIT   1099 AT TIME STEP     27, STRESS PERIOD      2
 UBDSV1 SAVING           STO-SY ON UNIT   1099 AT TIME STEP     27, STRESS PERIOD      2
 UBDSV1 SAVING     FLOW-JA-FACE ON UNIT   1099 AT TIME STEP     27, STRESS PERIOD      2
 UBDSV06 SAVING       DATA-SPDIS IN MODEL GWF              PACKAGE NPF             CONNECTED TO MODEL GWF              PACKAGE NPF              ON UNIT   1099 AT TIME STEP     27, STRESS PERIOD      2
 UBDSV06 SAVING              WEL IN MODEL GWF              PACKAGE GWF             CONNECTED TO MODEL GWF              PACKAGE WEL-1            ON UNIT   1099 AT TIME STEP     27, STRESS PERIOD      2
 UBDSV06 SAVING              DRN IN MODEL GWF              PACKAGE GWF             CONNECTED TO MODEL GWF              PACKAGE DRN-0            ON UNIT   1099 AT TIME STEP     27, STRESS PERIOD      2
 UBDSV06 SAVING              API IN MODEL GWF              PACKAGE GWF             CONNECTED TO MODEL GWF              PACKAGE MAR              ON UNIT   1099 AT TIME STEP     27, STRESS PERIOD      2
 UBDSV06 SAVING              CHD IN MODEL GWF              PACKAGE GWF             CONNECTED TO MODEL GWF              PACKAGE CHD_0            ON UNIT   1099 AT TIME STEP     27, STRESS PERIOD      2

    CALCULATED INTERCELL FLOW FOR PERIOD 2 STEP 27
(1,1,1): (1,1,2) 2.461476E-03 (1,2,1) 3.056987E-03
(1,1,2): (1,1,1) -2.461476E-03 (1,1,3) 6.754566E-03 (1,2,2) 8.726505E-03
(1,1,3): (1,1,2) -6.754566E-03 (1,1,4) 1.281884E-02 (1,2,3) 2.518077E-02
(1,1,4): (1,1,3) -1.281884E-02 (1,1,5) 1.527378E-02 (1,2,4) 5.857095E-02
(1,1,5): (1,1,4) -1.527378E-02 (1,1,6) 6.314379E-03 (1,2,5) 0.100867
(1,1,6): (1,1,5) -6.314379E-03 (1,1,7) -6.300907E-03 (1,2,6) 0.117352
(1,1,7): (1,1,6) 6.300907E-03 (1,1,8) -1.522050E-02 (1,2,7) 0.100892
(1,1,8): (1,1,7) 1.522050E-02 (1,1,9) -1.259744E-02 (1,2,8) 5.869911E-02
(1,1,9): (1,1,8) 1.259744E-02 (1,1,10) -5.948709E-03 (1,2,9) 2.576096E-02
(1,1,10): (1,1,9) 5.948709E-03 (1,2,10) 1.104896E-02
(1,2,1): (1,1,1) -3.056987E-03 (1,2,2) 8.130960E-03 (1,3,1) 9.659286E-03
(1,2,2): (1,1,2) -8.726505E-03 (1,2,1) -8.130960E-03 (1,2,3) 2.320851E-02 (1,3,2) 2.879242E-02
(1,2,3): (1,1,3) -2.518077E-02 (1,2,2) -2.320851E-02 (1,2,4) 4.620490E-02 (1,3,3) 8.689810E-02
(1,2,4): (1,1,4) -5.857095E-02 (1,2,3) -4.620490E-02 (1,2,5) 5.755122E-02 (1,3,4) 0.212217
(1,2,5): (1,1,5) -0.100867 (1,2,4) -5.755122E-02 (1,2,6) 2.278451E-02 (1,3,5) 0.382061
(1,2,6): (1,1,6) -0.117352 (1,2,5) -2.278451E-02 (1,2,7) -2.274618E-02 (1,3,6) 0.441963
(1,2,7): (1,1,7) -0.100892 (1,2,6) 2.274618E-02 (1,2,8) -5.739463E-02 (1,3,7) 0.382135
(1,2,8): (1,1,8) -5.869911E-02 (1,2,7) 5.739463E-02 (1,2,9) -4.553126E-02 (1,3,8) 0.212603
(1,2,9): (1,1,9) -2.576096E-02 (1,2,8) 4.553126E-02 (1,2,10) -2.065997E-02 (1,3,9) 8.869079E-02
(1,2,10): (1,1,10) -1.104896E-02 (1,2,9) 2.065997E-02 (1,3,10) 3.620842E-02
(1,3,1): (1,2,1) -9.659286E-03 (1,3,2) 2.726380E-02 (1,4,1) 2.192698E-02
(1,3,2): (1,2,2) -2.879242E-02 (1,3,1) -2.726380E-02 (1,3,3) 8.131096E-02 (1,4,2) 6.926371E-02
(1,3,3): (1,2,3) -8.689810E-02 (1,3,2) -8.131096E-02 (1,3,4) 0.171473 (1,4,3) 0.223149
(1,3,4): (1,2,4) -0.212217 (1,3,3) -0.171473 (1,3,5) 0.227136 (1,4,4) 0.590269
(1,3,5): (1,2,5) -0.382061 (1,3,4) -0.227136 (1,3,6) 8.247520E-02 (1,4,5) 1.15961
(1,3,6): (1,2,6) -0.441963 (1,3,5) -8.247520E-02 (1,3,7) -8.236329E-02 (1,4,6) 1.31275
(1,3,7): (1,2,7) -0.382135 (1,3,6) 8.236329E-02 (1,3,8) -0.226666 (1,4,7) 1.15977
(1,3,8): (1,2,8) -0.212603 (1,3,7) 0.226666 (1,3,9) -0.169390 (1,4,8) 0.591097
(1,3,9): (1,2,9) -8.869079E-02 (1,3,8) 0.169390 (1,3,10) -7.313420E-02 (1,4,9) 0.227104
(1,3,10): (1,2,10) -3.620842E-02 (1,3,9) 7.313420E-02 (1,4,10) 8.631403E-02
(1,4,1): (1,3,1) -2.192698E-02 (1,4,2) 7.460305E-02 (1,5,1) 3.120346E-02
(1,4,2): (1,3,2) -6.926371E-02 (1,4,1) -7.460305E-02 (1,4,3) 0.235215 (1,5,2) 0.106689
(1,4,3): (1,3,3) -0.223149 (1,4,2) -0.235215 (1,4,4) 0.538406 (1,5,3) 0.381478
(1,4,4): (1,3,4) -0.590269 (1,4,3) -0.538406 (1,4,5) 0.794481 (1,5,4) 1.17744
(1,4,5): (1,3,5) -1.15961 (1,4,4) -0.794481 (1,4,6) 0.234055 (1,5,5) 2.88052
(1,4,6): (1,3,6) -1.31275 (1,4,5) -0.234055 (1,4,7) -0.233787 (1,5,6) 3.02134
(1,4,7): (1,3,7) -1.15977 (1,4,6) 0.233787 (1,4,8) -0.793337 (1,5,7) 2.88073
(1,4,8): (1,3,8) -0.591097 (1,4,7) 0.793337 (1,4,9) -0.533176 (1,5,8) 1.17855
(1,4,9): (1,3,9) -0.227104 (1,4,8) 0.533176 (1,4,10) -0.213905 (1,5,9) 0.386899
(1,4,10): (1,3,10) -8.631403E-02 (1,4,9) 0.213905 (1,5,10) 0.131293
(1,5,1): (1,4,1) -3.120346E-02 (1,5,2) 0.150121 (1,6,1) 6.088219E-03
(1,5,2): (1,4,2) -0.106689 (1,5,1) -0.150121 (1,5,3) 0.510352 (1,6,2) 2.746819E-02
(1,5,3): (1,4,3) -0.381478 (1,5,2) -0.510352 (1,5,4) 1.33557 (1,6,3) 0.158158
(1,5,4): (1,4,4) -1.17744 (1,5,3) -1.33557 (1,5,5) 2.49158 (1,6,4) 0.980441
(1,5,5): (1,4,5) -2.88052 (1,5,4) -2.49158 (1,5,6) 0.371709 (1,6,5) 6.13869
(1,5,6): (1,4,6) -3.02134 (1,5,5) -0.371709 (1,5,7) -0.371233 (1,6,6) 4.77715
(1,5,7): (1,4,7) -2.88073 (1,5,6) 0.371233 (1,5,8) -2.48952 (1,6,7) 6.13875
(1,5,8): (1,4,8) -1.17855 (1,5,7) 2.48952 (1,5,9) -1.32594 (1,6,8) 0.980624
(1,5,9): (1,4,9) -0.386899 (1,5,8) 1.32594 (1,5,10) -0.469719 (1,6,9) 0.159099
(1,5,10): (1,4,10) -0.131293 (1,5,9) 0.469719 (1,6,10) 3.235517E-02
(1,6,1): (1,5,1) -6.088219E-03 (1,6,2) 0.171531 (1,7,1) -6.526804E-02
(1,6,2): (1,5,2) -2.746819E-02 (1,6,1) -0.171531 (1,6,3) 0.641662 (1,7,2) -0.263362
(1,6,3): (1,5,3) -0.158158 (1,6,2) -0.641662 (1,6,4) 2.16702 (1,7,3) -1.14126
(1,6,4): (1,5,4) -0.980441 (1,6,3) -2.16702 (1,6,5) 7.71621 (1,7,4) -4.57967
(1,6,5): (1,5,5) -6.13869 (1,6,4) -7.71621 (1,6,6) -0.934126 (1,7,5) -17.5087
(1,6,6): (1,5,6) -4.77715 (1,6,5) 0.934126 (1,6,7) 0.934662 (1,7,6) -30.0514
(1,6,7): (1,5,7) -6.13875 (1,6,6) -0.934662 (1,6,8) -7.71392 (1,7,7) -17.5091
(1,6,8): (1,5,8) -0.980624 (1,6,7) 7.71392 (1,6,9) -2.15653 (1,7,8) -4.58161
(1,6,9): (1,5,9) -0.159099 (1,6,8) 2.15653 (1,6,10) -0.597007 (1,7,9) -1.15162
(1,6,10): (1,5,10) -3.235517E-02 (1,6,9) 0.597007 (1,7,10) -0.316364
(1,7,1): (1,6,1) 6.526804E-02 (1,7,2) -2.638881E-02 (1,8,1) -5.358056E-02
(1,7,2): (1,6,2) 0.263362 (1,7,1) 2.638881E-02 (1,7,3) -0.232480 (1,8,2) -0.213723
(1,7,3): (1,6,3) 1.14126 (1,7,2) 0.232480 (1,7,4) -1.20838 (1,8,3) -0.938326
(1,7,4): (1,6,4) 4.57967 (1,7,3) 1.20838 (1,7,5) -4.39025 (1,8,4) -3.89653
(1,7,5): (1,6,5) 17.5087 (1,7,4) 4.39025 (1,7,6) -11.7267 (1,8,5) -15.3445
(1,7,6): (1,6,6) 30.0514 (1,7,5) 11.7267 (1,7,7) 11.7269 (1,8,6) -59.8358
(1,7,7): (1,6,7) 17.5091 (1,7,6) -11.7269 (1,7,8) 4.39090 (1,8,7) -15.3448
(1,7,8): (1,6,8) 4.58161 (1,7,7) -4.39090 (1,7,9) 1.21030 (1,8,8) -3.89814
(1,7,9): (1,6,9) 1.15162 (1,7,8) -1.21030 (1,7,10) 0.234261 (1,8,9) -0.946887
(1,7,10): (1,6,10) 0.316364 (1,7,9) -0.234261 (1,8,10) -0.256873
(1,8,1): (1,7,1) 5.358056E-02 (1,8,2) -0.186487 (1,9,1) 3.596710E-02
(1,8,2): (1,7,2) 0.213723 (1,8,1) 0.186487 (1,8,3) -0.957220 (1,9,2) 0.172452
(1,8,3): (1,7,3) 0.938326 (1,8,2) 0.957220 (1,8,4) -4.17475 (1,9,3) 0.848431
(1,8,4): (1,7,4) 3.89653 (1,8,3) 4.17475 (1,8,5) -15.9001 (1,9,4) 3.76105
(1,8,5): (1,7,5) 15.3445 (1,8,4) 15.9001 (1,8,6) -54.0261 (1,9,5) 15.2243
(1,8,6): (1,7,6) 59.8358 (1,8,5) 54.0261 (1,8,7) 54.0260 (1,9,6) 59.6763
(1,8,7): (1,7,7) 15.3448 (1,8,6) -54.0260 (1,8,8) 15.8993 (1,9,7) 15.2244
(1,8,8): (1,7,8) 3.89814 (1,8,7) -15.8993 (1,8,9) 4.16949 (1,9,8) 3.76176
(1,8,9): (1,7,9) 0.946887 (1,8,8) -4.16949 (1,8,10) 0.924118 (1,9,9) 0.853318
(1,8,10): (1,7,10) 0.256873 (1,8,9) -0.924118 (1,9,10) 0.202691
(1,9,1): (1,8,1) -3.596710E-02 (1,9,2) -4.998362E-02 (1,10,1) 5.619769E-02
(1,9,2): (1,8,2) -0.172452 (1,9,1) 4.998362E-02 (1,9,3) -0.280507 (1,10,2) 0.243183
(1,9,3): (1,8,3) -0.848431 (1,9,2) 0.280507 (1,9,4) -1.25015 (1,10,3) 1.10336
(1,9,4): (1,8,4) -3.76105 (1,9,3) 1.25015 (1,9,5) -4.36133 (1,10,4) 4.55320
(1,9,5): (1,8,5) -15.2243 (1,9,4) 4.36133 (1,9,6) -11.7075 (1,10,5) 17.6289
(1,9,6): (1,8,6) -59.6763 (1,9,5) 11.7075 (1,9,7) 11.7075 (1,10,6) 30.1997
(1,9,7): (1,8,7) -15.2244 (1,9,6) -11.7075 (1,9,8) 4.36126 (1,10,7) 17.6292
(1,9,8): (1,8,8) -3.76176 (1,9,7) -4.36126 (1,9,9) 1.24926 (1,10,8) 4.55463
(1,9,9): (1,8,9) -0.853318 (1,9,8) -1.24926 (1,9,10) 0.273031 (1,10,9) 1.11176
(1,9,10): (1,8,10) -0.202691 (1,9,9) -0.273031 (1,10,10) 0.289553
(1,10,1): (1,9,1) -5.619769E-02 (1,10,2) 0.136829 (1,11,1) -2.694653E-03
(1,10,2): (1,9,2) -0.243183 (1,10,1) -0.136829 (1,10,3) 0.575995 (1,11,2) -2.165762E-02
(1,10,3): (1,9,3) -1.10336 (1,10,2) -0.575995 (1,10,4) 2.13712 (1,11,3) -0.156897
(1,10,4): (1,9,4) -4.55320 (1,10,3) -2.13712 (1,10,5) 7.88322 (1,11,4) -1.02944
(1,10,5): (1,9,5) -17.6289 (1,10,4) -7.88322 (1,10,6) -0.905636 (1,11,5) -6.37284
(1,10,6): (1,9,6) -30.1997 (1,10,5) 0.905636 (1,10,7) 0.905876 (1,11,6) -5.05551
(1,10,7): (1,9,7) -17.6292 (1,10,6) -0.905876 (1,10,8) -7.88206 (1,11,7) -6.37285
(1,10,8): (1,9,8) -4.55463 (1,10,7) 7.88206 (1,10,9) -2.13094 (1,11,8) -1.02943
(1,10,9): (1,9,9) -1.11176 (1,10,8) 2.13094 (1,10,10) -0.545339 (1,11,9) -0.157088
(1,10,10): (1,9,10) -0.289553 (1,10,9) 0.545339 (1,11,10) -2.415192E-02
(1,11,1): (1,10,1) 2.694653E-03 (1,11,2) 0.117844 (1,12,1) -2.166311E-02
(1,11,2): (1,10,2) 2.165762E-02 (1,11,1) -0.117844 (1,11,3) 0.440197 (1,12,2) -8.473915E-02
(1,11,3): (1,10,3) 0.156897 (1,11,2) -0.440197 (1,11,4) 1.25548 (1,12,3) -0.336270
(1,11,4): (1,10,4) 1.02944 (1,11,3) -1.25548 (1,11,5) 2.47401 (1,12,4) -1.12088
(1,11,5): (1,10,5) 6.37284 (1,11,4) -2.47401 (1,11,6) 0.355054 (1,12,5) -2.86283
(1,11,6): (1,10,6) 5.05551 (1,11,5) -0.355054 (1,11,7) -0.354826 (1,12,6) -3.01350
(1,11,7): (1,10,7) 6.37285 (1,11,6) 0.354826 (1,11,8) -2.47289 (1,12,7) -2.86294
(1,11,8): (1,10,8) 1.02943 (1,11,7) 2.47289 (1,11,9) -1.24954 (1,12,8) -1.12149
(1,11,9): (1,10,9) 0.157088 (1,11,8) 1.24954 (1,11,10) -0.411896 (1,12,9) -0.339685
(1,11,10): (1,10,10) 2.415192E-02 (1,11,9) 0.411896 (1,12,10) -0.102356
(1,12,1): (1,11,1) 2.166311E-02 (1,12,2) 5.474712E-02 (1,13,1) -1.422492E-02
(1,12,2): (1,11,2) 8.473915E-02 (1,12,1) -5.474712E-02 (1,12,3) 0.188408 (1,13,2) -5.055264E-02
(1,12,3): (1,11,3) 0.336270 (1,12,2) -0.188408 (1,12,4) 0.469856 (1,13,3) -0.179271
(1,12,4): (1,11,4) 1.12088 (1,12,3) -0.469856 (1,12,5) 0.738200 (1,13,4) -0.512431
(1,12,5): (1,11,5) 2.86283 (1,12,4) -0.738200 (1,12,6) 0.207826 (1,13,5) -1.05931
(1,12,6): (1,11,6) 3.01350 (1,12,5) -0.207826 (1,12,7) -0.207702 (1,13,6) -1.20122
(1,12,7): (1,11,7) 2.86294 (1,12,6) 0.207702 (1,12,8) -0.737600 (1,13,7) -1.05938
(1,12,8): (1,11,8) 1.12149 (1,12,7) 0.737600 (1,12,9) -0.466783 (1,13,8) -0.512874
(1,12,9): (1,11,9) 0.339685 (1,12,8) 0.466783 (1,12,10) -0.174398 (1,13,9) -0.181635
(1,12,10): (1,11,10) 0.102356 (1,12,9) 0.174398 (1,13,10) -6.192886E-02
(1,13,1): (1,12,1) 1.422492E-02 (1,13,2) 1.841787E-02 (1,14,1) -5.760250E-03
(1,13,2): (1,12,2) 5.055264E-02 (1,13,1) -1.841787E-02 (1,13,3) 5.967771E-02 (1,14,2) -1.916384E-02
(1,13,3): (1,12,3) 0.179271 (1,13,2) -5.967771E-02 (1,13,4) 0.136836 (1,14,3) -6.336052E-02
(1,13,4): (1,12,4) 0.512431 (1,13,3) -0.136836 (1,13,5) 0.193019 (1,14,4) -0.166820
(1,13,5): (1,12,5) 1.05931 (1,13,4) -0.193019 (1,13,6) 6.725587E-02 (1,14,5) -0.315826
(1,13,6): (1,12,6) 1.20122 (1,13,5) -6.725587E-02 (1,13,7) -6.720683E-02 (1,14,6) -0.366335
(1,13,7): (1,12,7) 1.05938 (1,13,6) 6.720683E-02 (1,13,8) -0.192788 (1,14,7) -0.315860
(1,13,8): (1,12,8) 0.512874 (1,13,7) 0.192788 (1,13,9) -0.135694 (1,14,8) -0.167013
(1,13,9): (1,12,9) 0.181635 (1,13,8) 0.135694 (1,13,10) -5.469984E-02 (1,14,9) -6.435330E-02
(1,13,10): (1,12,10) 6.192886E-02 (1,13,9) 5.469984E-02 (1,14,10) -2.370930E-02
(1,14,1): (1,13,1) 5.760250E-03 (1,14,2) 5.014376E-03 (1,15,1) -1.683250E-03
(1,14,2): (1,13,2) 1.916384E-02 (1,14,1) -5.014376E-03 (1,14,3) 1.548265E-02 (1,15,2) -5.330011E-03
(1,14,3): (1,13,3) 6.336052E-02 (1,14,2) -1.548265E-02 (1,14,4) 3.340686E-02 (1,15,3) -1.677279E-02
(1,14,4): (1,13,4) 0.166820 (1,14,3) -3.340686E-02 (1,14,5) 4.419406E-02 (1,15,4) -4.190805E-02
(1,14,5): (1,13,5) 0.315826 (1,14,4) -4.419406E-02 (1,14,6) 1.689670E-02 (1,15,5) -7.568333E-02
(1,14,6): (1,13,6) 0.366335 (1,14,5) -1.689670E-02 (1,14,7) -1.688102E-02 (1,15,6) -8.839635E-02
(1,14,7): (1,13,7) 0.315860 (1,14,6) 1.688102E-02 (1,14,8) -4.412253E-02 (1,15,7) -7.569394E-02
(1,14,8): (1,13,8) 0.167013 (1,14,7) 4.412253E-02 (1,14,9) -3.306645E-02 (1,15,8) -4.196791E-02
(1,14,9): (1,13,9) 6.435330E-02 (1,14,8) 3.306645E-02 (1,14,10) -1.405976E-02 (1,15,9) -1.707119E-02
(1,14,10): (1,13,10) 2.370930E-02 (1,14,9) 1.405976E-02 (1,15,10) -6.643866E-03
(1,15,1): (1,14,1) 1.683250E-03 (1,15,2) 1.367626E-03
(1,15,2): (1,14,2) 5.330011E-03 (1,15,1) -1.367626E-03 (1,15,3) 4.040017E-03
(1,15,3): (1,14,3) 1.677279E-02 (1,15,2) -4.040017E-03 (1,15,4) 8.273744E-03
(1,15,4): (1,14,4) 4.190805E-02 (1,15,3) -8.273744E-03 (1,15,5) 1.042939E-02
(1,15,5): (1,14,5) 7.568333E-02 (1,15,4) -1.042939E-02 (1,15,6) 4.192732E-03
(1,15,6): (1,14,6) 8.839635E-02 (1,15,5) -4.192732E-03 (1,15,7) -4.187661E-03
(1,15,7): (1,14,7) 7.569394E-02 (1,15,6) 4.187661E-03 (1,15,8) -1.040712E-02
(1,15,8): (1,14,8) 4.196791E-02 (1,15,7) 1.040712E-02 (1,15,9) -8.171942E-03
(1,15,9): (1,14,9) 1.707119E-02 (1,15,8) 8.171942E-03 (1,15,10) -3.632745E-03
(1,15,10): (1,14,10) 6.643866E-03 (1,15,9) 3.632745E-03

 WEL PACKAGE (WEL-1) FLOW RATES   PERIOD      2   STEP       27
 ----------------------------------------------------------------------------------------
   NUMBER   CELLID                    RATE       NAME                                    
 ----------------------------------------------------------------------------------------
     1      (1,8,6)              -229.35526      WEL                                     
 ----------------------------------------------------------------------------------------




 DRN PACKAGE (DRN-0) FLOW RATES   PERIOD      2   STEP       27
 ----------------------------------------------------------------------------------------
   NUMBER   CELLID                    RATE       NAME                                    
 ----------------------------------------------------------------------------------------
     1      (1,1,1)               0.0000000      SURF                                    
     2      (1,1,2)               0.0000000      SURF                                    
     3      (1,1,3)               0.0000000      SURF                                    
     4      (1,1,4)               0.0000000      SURF                                    
     5      (1,1,5)               0.0000000      SURF                                    
     6      (1,1,6)               0.0000000      SURF                                    
     7      (1,1,7)               0.0000000      SURF                                    
     8      (1,1,8)               0.0000000      SURF                                    
     9      (1,1,9)               0.0000000      SURF                                    
     10     (1,1,10)              0.0000000      SURF                                    
     11     (1,2,1)               0.0000000      SURF                                    
     12     (1,2,2)               0.0000000      SURF                                    
     13     (1,2,3)               0.0000000      SURF                                    
     14     (1,2,4)               0.0000000      SURF                                    
     15     (1,2,5)               0.0000000      SURF                                    
     16     (1,2,6)               0.0000000      SURF                                    
     17     (1,2,7)               0.0000000      SURF                                    
     18     (1,2,8)               0.0000000      SURF                                    
     19     (1,2,9)               0.0000000      SURF                                    
     20     (1,2,10)              0.0000000      SURF                                    
     21     (1,3,1)               0.0000000      SURF                                    
     22     (1,3,2)               0.0000000      SURF                                    
     23     (1,3,3)               0.0000000      SURF                                    
     24     (1,3,4)               0.0000000      SURF                                    
     25     (1,3,5)               0.0000000      SURF                                    
     26     (1,3,6)               0.0000000      SURF                                    
     27     (1,3,7)               0.0000000      SURF                                    
     28     (1,3,8)               0.0000000      SURF                                    
     29     (1,3,9)               0.0000000      SURF                                    
     30     (1,3,10)              0.0000000      SURF                                    
     31     (1,4,1)               0.0000000      SURF                                    
     32     (1,4,2)               0.0000000      SURF                                    
     33     (1,4,3)               0.0000000      SURF                                    
     34     (1,4,4)               0.0000000      SURF                                    
     35     (1,4,5)               0.0000000      SURF                                    
     36     (1,4,6)               0.0000000      SURF                                    
     37     (1,4,7)               0.0000000      SURF                                    
     38     (1,4,8)               0.0000000      SURF                                    
     39     (1,4,9)               0.0000000      SURF                                    
     40     (1,4,10)              0.0000000      SURF                                    
     41     (1,5,1)               0.0000000      SURF                                    
     42     (1,5,2)               0.0000000      SURF                                    
     43     (1,5,3)               0.0000000      SURF                                    
     44     (1,5,4)               0.0000000      SURF                                    
     45     (1,5,5)               0.0000000      SURF                                    
     46     (1,5,6)               0.0000000      SURF                                    
     47     (1,5,7)               0.0000000      SURF                                    
     48     (1,5,8)               0.0000000      SURF                                    
     49     (1,5,9)               0.0000000      SURF                                    
     50     (1,5,10)              0.0000000      SURF                                    
     51     (1,6,1)               0.0000000      SURF                                    
     52     (1,6,2)               0.0000000      SURF                                    
     53     (1,6,3)               0.0000000      SURF                                    
     54     (1,6,4)               0.0000000      SURF                                    
     55     (1,6,5)               0.0000000      SURF                                    
     56     (1,6,6)               0.0000000      SURF                                    
     57     (1,6,7)              -8.10541678E-09 SURF                                    
     58     (1,6,8)               0.0000000      SURF                                    
     59     (1,6,9)               0.0000000      SURF                                    
     60     (1,6,10)              0.0000000      SURF                                    
     61     (1,7,1)               0.0000000      SURF                                    
     62     (1,7,2)               0.0000000      SURF                                    
     63     (1,7,3)               0.0000000      SURF                                    
     64     (1,7,4)               0.0000000      SURF                                    
     65     (1,7,5)               0.0000000      SURF                                    
     66     (1,7,6)               0.0000000      SURF                                    
     67     (1,7,7)               0.0000000      SURF                                    
     68     (1,7,8)               0.0000000      SURF                                    
     69     (1,7,9)               0.0000000      SURF                                    
     70     (1,7,10)              0.0000000      SURF                                    
     71     (1,8,1)               0.0000000      SURF                                    
     72     (1,8,2)               0.0000000      SURF                                    
     73     (1,8,3)               0.0000000      SURF                                    
     74     (1,8,4)               0.0000000      SURF                                    
     75     (1,8,5)               0.0000000      SURF                                    
     76     (1,8,6)               0.0000000      SURF                                    
     77     (1,8,7)               0.0000000      SURF                                    
     78     (1,8,8)               0.0000000      SURF                                    
     79     (1,8,9)               0.0000000      SURF                                    
     80     (1,8,10)              0.0000000      SURF                                    
     81     (1,9,1)               0.0000000      SURF                                    
     82     (1,9,2)               0.0000000      SURF                                    
     83     (1,9,3)               0.0000000      SURF                                    
     84     (1,9,4)               0.0000000      SURF                                    
     85     (1,9,5)               0.0000000      SURF                                    
     86     (1,9,6)               0.0000000      SURF                                    
     87     (1,9,7)               0.0000000      SURF                                    
     88     (1,9,8)               0.0000000      SURF                                    
     89     (1,9,9)               0.0000000      SURF                                    
     90     (1,9,10)              0.0000000      SURF                                    
     91     (1,10,1)              0.0000000      SURF                                    
     92     (1,10,2)              0.0000000      SURF                                    
     93     (1,10,3)              0.0000000      SURF                                    
     94     (1,10,4)              0.0000000      SURF                                    
     95     (1,10,5)              0.0000000      SURF                                    
     96     (1,10,6)              0.0000000      SURF                                    
     97     (1,10,7)             -3.87983164E-07 SURF                                    
     98     (1,10,8)              0.0000000      SURF                                    
     99     (1,10,9)              0.0000000      SURF                                    
    100     (1,10,10)             0.0000000      SURF                                    
    101     (1,11,1)              0.0000000      SURF                                    
    102     (1,11,2)              0.0000000      SURF                                    
    103     (1,11,3)              0.0000000      SURF                                    
    104     (1,11,4)              0.0000000      SURF                                    
    105     (1,11,5)              0.0000000      SURF                                    
    106     (1,11,6)              0.0000000      SURF                                    
    107     (1,11,7)              0.0000000      SURF                                    
    108     (1,11,8)              0.0000000      SURF                                    
    109     (1,11,9)              0.0000000      SURF                                    
    110     (1,11,10)             0.0000000      SURF                                    
    111     (1,12,1)              0.0000000      SURF                                    
    112     (1,12,2)              0.0000000      SURF                                    
    113     (1,12,3)              0.0000000      SURF                                    
    114     (1,12,4)              0.0000000      SURF                                    
    115     (1,12,5)              0.0000000      SURF                                    
    116     (1,12,6)              0.0000000      SURF                                    
    117     (1,12,7)              0.0000000      SURF                                    
    118     (1,12,8)              0.0000000      SURF                                    
    119     (1,12,9)              0.0000000      SURF                                    
    120     (1,12,10)             0.0000000      SURF                                    
    121     (1,13,1)              0.0000000      SURF                                    
    122     (1,13,2)              0.0000000      SURF                                    
    123     (1,13,3)              0.0000000      SURF                                    
    124     (1,13,4)              0.0000000      SURF                                    
    125     (1,13,5)              0.0000000      SURF                                    
    126     (1,13,6)              0.0000000      SURF                                    
    127     (1,13,7)              0.0000000      SURF                                    
    128     (1,13,8)              0.0000000      SURF                                    
    129     (1,13,9)              0.0000000      SURF                                    
    130     (1,13,10)             0.0000000      SURF                                    
    131     (1,14,1)              0.0000000      SURF                                    
    132     (1,14,2)              0.0000000      SURF                                    
    133     (1,14,3)              0.0000000      SURF                                    
    134     (1,14,4)              0.0000000      SURF                                    
    135     (1,14,5)              0.0000000      SURF                                    
    136     (1,14,6)              0.0000000      SURF                                    
    137     (1,14,7)              0.0000000      SURF                                    
    138     (1,14,8)              0.0000000      SURF                                    
    139     (1,14,9)              0.0000000      SURF                                    
    140     (1,14,10)             0.0000000      SURF                                    
    141     (1,15,1)              0.0000000      SURF                                    
    142     (1,15,2)              0.0000000      SURF                                    
    143     (1,15,3)              0.0000000      SURF                                    
    144     (1,15,4)              0.0000000      SURF                                    
    145     (1,15,5)              0.0000000      SURF                                    
    146     (1,15,6)              0.0000000      SURF                                    
    147     (1,15,7)              0.0000000      SURF                                    
    148     (1,15,8)              0.0000000      SURF                                    
    149     (1,15,9)              0.0000000      SURF                                    
    150     (1,15,10)             0.0000000      SURF                                    
 ----------------------------------------------------------------------------------------




 API PACKAGE (MAR) FLOW RATES   PERIOD      2   STEP       27
 -----------------------------------------------
   NUMBER   CELLID                    RATE      
 -----------------------------------------------
     1      (1,6,5)               32.296443     
     2      (1,6,6)               32.296443     
     3      (1,6,7)               32.296443     
     4      (1,10,5)              32.789964     
     5      (1,10,6)              32.789964     
     6      (1,10,7)              32.789964     
 -----------------------------------------------



1
  HEAD IN LAYER   1 AT END OF TIME STEP  27 IN STRESS PERIOD    2
  ---------------------------------------------------------------------------

            1           2           3           4           5           6           7           8           9          10
 ........................................................................................................................
   1   1.4649E-04  3.9263E-04  1.0680E-03  2.3496E-03  3.8764E-03  4.5075E-03  3.8777E-03  2.3563E-03  1.0968E-03  5.0202E-04
   2   4.5218E-04  1.2652E-03  3.5852E-03  8.2019E-03  1.3949E-02  1.6224E-02  1.3953E-02  8.2214E-03  3.6720E-03  1.6067E-03
   3   1.4180E-03  4.1432E-03  1.2264E-02  2.9361E-02  5.1958E-02  6.0156E-02  5.1969E-02  2.9419E-02  1.2530E-02  5.2257E-03
   4   3.6099E-03  1.1062E-02  3.4503E-02  8.7874E-02  0.1660      0.1890      0.1661      8.8013E-02  3.5161E-02  1.3845E-02
   5   6.7281E-03  2.1708E-02  7.2376E-02  0.2033      0.4419      0.4774      0.4419      0.2035      7.3568E-02  2.6939E-02
   6   7.3365E-03  2.4448E-02  8.8054E-02  0.2985       1.000      0.9150       1.000      0.2987      8.9337E-02  3.0165E-02
   7   8.1448E-04 -1.8242E-03 -2.5076E-02 -0.1462     -0.5918      -1.838     -0.5917     -0.1461     -2.4806E-02 -1.3763E-03
   8  -4.5431E-03 -2.3200E-02 -0.1191     -0.5417      -2.223      -9.169      -2.223     -0.5417     -0.1197     -2.7067E-02
   9  -9.4609E-04 -5.9449E-03 -3.4012E-02 -0.1595     -0.6027      -1.848     -0.6027     -0.1595     -3.4106E-02 -6.7843E-03
  10   4.6711E-03  1.8329E-02  7.5497E-02  0.2833       1.000      0.9176       1.000      0.2834      7.6228E-02  2.2107E-02
  11   4.4017E-03  1.6167E-02  5.9925E-02  0.1832      0.4206      0.4546      0.4206      0.1833      6.0639E-02  1.9697E-02
  12   2.2364E-03  7.7068E-03  2.6498E-02  7.3142E-02  0.1459      0.1663      0.1459      7.3214E-02  2.6875E-02  9.4818E-03
  13   8.1418E-04  2.6555E-03  8.6181E-03  2.2271E-02  4.1493E-02  4.8187E-02  4.1498E-02  2.2299E-02  8.7599E-03  3.2948E-03
  14   2.3820E-04  7.3960E-04  2.2875E-03  5.6263E-03  1.0041E-02  1.1729E-02  1.0043E-02  5.6350E-03  2.3303E-03  9.2461E-04
  15   6.9884E-05  2.0664E-04  6.1062E-04  1.4379E-03  2.4806E-03  2.8997E-03  2.4811E-03  1.4406E-03  6.2353E-04  2.6028E-04

 HEAD WILL BE SAVED ON UNIT 1100 AT END OF TIME STEP   27, STRESS PERIOD    2


  VOLUME BUDGET FOR ENTIRE MODEL AT END OF TIME STEP   27, STRESS PERIOD   2
  ---------------------------------------------------------------------------------------------------

     CUMULATIVE VOLUME      L**3       RATES FOR THIS TIME STEP      L**3/T          PACKAGE NAME    
     ------------------                 ------------------------                     ----------------

           IN:                                      IN:
           ---                                      ---
              STO-SS =          17.0494                STO-SS =       3.3603E-02     STORAGE                          
              STO-SY =       44350.4355                STO-SY =          76.1184     STORAGE                          
                 WEL =           0.0000                   WEL =           0.0000     WEL-1                            
                 DRN =           0.0000                   DRN =           0.0000     DRN-0                            
                 API =       54081.4653                   API =         195.2592     MAR                              
                 CHD =       2.0279E-08                   CHD =           0.0000     CHD_0                            

            TOTAL IN =       98448.9502              TOTAL IN =         271.4112

          OUT:                                     OUT:
          ----                                     ----
              STO-SS =          14.0713                STO-SS =       2.1329E-02     STORAGE                          
              STO-SY =       27344.0102                STO-SY =          42.0346     STORAGE                          
                 WEL =       71090.8686                   WEL =         229.3553     WEL-1                            
                 DRN =       7.8868E-05                   DRN =       3.9609E-07     DRN-0                            
                 API =           0.0000                   API =           0.0000     MAR                              
                 CHD =       2.0705E-08                   CHD =           0.0000     CHD_0                            

           TOTAL OUT =       98448.9502             TOTAL OUT =         271.4112

            IN - OUT =      -6.0127E-07              IN - OUT =      -3.1098E-09

 PERCENT DISCREPANCY =          -0.00     PERCENT DISCREPANCY =          -0.00




         TIME SUMMARY AT END OF TIME STEP   27 IN STRESS PERIOD    2
                    SECONDS     MINUTES      HOURS       DAYS        YEARS
                    -----------------------------------------------------------
   TIME STEP LENGTH 8.64000E+05  14400.      240.00      10.000     2.73785E-02
 STRESS PERIOD TIME 2.33280E+07 3.88800E+05  6480.0      270.00     0.73922    
         TOTAL TIME 2.34144E+07 3.90240E+05  6504.0      271.00     0.74196    


end timestep


start timestep kper="2" kstp="28" mode="normal"

 UBDSV1 SAVING           STO-SS ON UNIT   1099 AT TIME STEP     28, STRESS PERIOD      2
 UBDSV1 SAVING           STO-SY ON UNIT   1099 AT TIME STEP     28, STRESS PERIOD      2
 UBDSV1 SAVING     FLOW-JA-FACE ON UNIT   1099 AT TIME STEP     28, STRESS PERIOD      2
 UBDSV06 SAVING       DATA-SPDIS IN MODEL GWF              PACKAGE NPF             CONNECTED TO MODEL GWF              PACKAGE NPF              ON UNIT   1099 AT TIME STEP     28, STRESS PERIOD      2
 UBDSV06 SAVING              WEL IN MODEL GWF              PACKAGE GWF             CONNECTED TO MODEL GWF              PACKAGE WEL-1            ON UNIT   1099 AT TIME STEP     28, STRESS PERIOD      2
 UBDSV06 SAVING              DRN IN MODEL GWF              PACKAGE GWF             CONNECTED TO MODEL GWF              PACKAGE DRN-0            ON UNIT   1099 AT TIME STEP     28, STRESS PERIOD      2
 UBDSV06 SAVING              API IN MODEL GWF              PACKAGE GWF             CONNECTED TO MODEL GWF              PACKAGE MAR              ON UNIT   1099 AT TIME STEP     28, STRESS PERIOD      2
 UBDSV06 SAVING              CHD IN MODEL GWF              PACKAGE GWF             CONNECTED TO MODEL GWF              PACKAGE CHD_0            ON UNIT   1099 AT TIME STEP     28, STRESS PERIOD      2

    CALCULATED INTERCELL FLOW FOR PERIOD 2 STEP 28
(1,1,1): (1,1,2) 2.878235E-03 (1,2,1) 3.567161E-03
(1,1,2): (1,1,1) -2.878235E-03 (1,1,3) 7.747155E-03 (1,2,2) 9.915066E-03
(1,1,3): (1,1,2) -7.747155E-03 (1,1,4) 1.440677E-02 (1,2,3) 2.798128E-02
(1,1,4): (1,1,3) -1.440677E-02 (1,1,5) 1.689448E-02 (1,2,4) 6.391068E-02
(1,1,5): (1,1,4) -1.689448E-02 (1,1,6) 6.985629E-03 (1,2,5) 0.108708
(1,1,6): (1,1,5) -6.985629E-03 (1,1,7) -6.968116E-03 (1,2,6) 0.126171
(1,1,7): (1,1,6) 6.968116E-03 (1,1,8) -1.682718E-02 (1,2,7) 0.108739
(1,1,8): (1,1,7) 1.682718E-02 (1,1,9) -1.413429E-02 (1,2,8) 6.406665E-02
(1,1,9): (1,1,8) 1.413429E-02 (1,1,10) -6.780435E-03 (1,2,9) 2.866999E-02
(1,1,10): (1,1,9) 6.780435E-03 (1,2,10) 1.260482E-02
(1,2,1): (1,1,1) -3.567161E-03 (1,2,2) 9.226096E-03 (1,3,1) 1.099399E-02
(1,2,2): (1,1,2) -9.915066E-03 (1,2,1) -9.226096E-03 (1,2,3) 2.581298E-02 (1,3,2) 3.188846E-02
(1,2,3): (1,1,3) -2.798128E-02 (1,2,2) -2.581298E-02 (1,2,4) 5.033130E-02 (1,3,3) 9.409680E-02
(1,2,4): (1,1,4) -6.391068E-02 (1,2,3) -5.033130E-02 (1,2,5) 6.167122E-02 (1,3,4) 0.225619
(1,2,5): (1,1,5) -0.108708 (1,2,4) -6.167122E-02 (1,2,6) 2.443067E-02 (1,3,5) 0.401167
(1,2,6): (1,1,6) -0.126171 (1,2,5) -2.443067E-02 (1,2,7) -2.438218E-02 (1,3,6) 0.463018
(1,2,7): (1,1,7) -0.108739 (1,2,6) 2.438218E-02 (1,2,8) -6.147891E-02 (1,3,7) 0.401257
(1,2,8): (1,1,8) -6.406665E-02 (1,2,7) 6.147891E-02 (1,2,9) -4.952581E-02 (1,3,8) 0.226078
(1,2,9): (1,1,9) -2.866999E-02 (1,2,8) 4.952581E-02 (1,2,10) -2.284467E-02 (1,3,9) 9.617415E-02
(1,2,10): (1,1,10) -1.260482E-02 (1,2,9) 2.284467E-02 (1,3,10) 4.026699E-02
(1,3,1): (1,2,1) -1.099399E-02 (1,3,2) 3.012020E-02 (1,4,1) 2.422568E-02
(1,3,2): (1,2,2) -3.188846E-02 (1,3,1) -3.012020E-02 (1,3,3) 8.801755E-02 (1,4,2) 7.444572E-02
(1,3,3): (1,2,3) -9.409680E-02 (1,3,2) -8.801755E-02 (1,3,4) 0.181797 (1,4,3) 0.234601
(1,3,4): (1,2,4) -0.225619 (1,3,3) -0.181797 (1,3,5) 0.236935 (1,4,4) 0.609945
(1,3,5): (1,2,5) -0.401167 (1,3,4) -0.236935 (1,3,6) 8.605291E-02 (1,4,5) 1.18510
(1,3,6): (1,2,6) -0.463018 (1,3,5) -8.605291E-02 (1,3,7) -8.591481E-02 (1,4,6) 1.33860
(1,3,7): (1,2,7) -0.401257 (1,3,6) 8.591481E-02 (1,3,8) -0.236373 (1,4,7) 1.18528
(1,3,8): (1,2,8) -0.226078 (1,3,7) 0.236373 (1,3,9) -0.179370 (1,4,8) 0.610902
(1,3,9): (1,2,9) -9.617415E-02 (1,3,8) 0.179370 (1,3,10) -7.874211E-02 (1,4,9) 0.239053
(1,3,10): (1,2,10) -4.026699E-02 (1,3,9) 7.874211E-02 (1,4,10) 9.314847E-02
(1,4,1): (1,3,1) -2.422568E-02 (1,4,2) 8.034319E-02 (1,5,1) 3.319316E-02
(1,4,2): (1,3,2) -7.444572E-02 (1,4,1) -8.034319E-02 (1,4,3) 0.248195 (1,5,2) 0.110475
(1,4,3): (1,3,3) -0.234601 (1,4,2) -0.248195 (1,4,4) 0.556946 (1,5,3) 0.387436
(1,4,4): (1,3,4) -0.609945 (1,4,3) -0.556946 (1,4,5) 0.810019 (1,5,4) 1.18170
(1,4,5): (1,3,5) -1.18510 (1,4,4) -0.810019 (1,4,6) 0.237958 (1,5,5) 2.87904
(1,4,6): (1,3,6) -1.33860 (1,4,5) -0.237958 (1,4,7) -0.237635 (1,5,6) 3.00997
(1,4,7): (1,3,7) -1.18528 (1,4,6) 0.237635 (1,4,8) -0.808681 (1,5,7) 2.87928
(1,4,8): (1,3,8) -0.610902 (1,4,7) 0.808681 (1,4,9) -0.551001 (1,5,8) 1.18293
(1,4,9): (1,3,9) -0.239053 (1,4,8) 0.551001 (1,4,10) -0.224626 (1,5,9) 0.393314
(1,4,10): (1,3,10) -9.314847E-02 (1,4,9) 0.224626 (1,5,10) 0.136466
(1,5,1): (1,4,1) -3.319316E-02 (1,5,2) 0.157661 (1,6,1) 4.587087E-03
(1,5,2): (1,4,2) -0.110475 (1,5,1) -0.157661 (1,5,3) 0.525532 (1,6,2) 2.177513E-02
(1,5,3): (1,4,3) -0.387436 (1,5,2) -0.525532 (1,5,4) 1.35250 (1,6,3) 0.138225
(1,5,4): (1,4,4) -1.18170 (1,5,3) -1.35250 (1,5,5) 2.50159 (1,6,4) 0.930687
(1,5,5): (1,4,5) -2.87904 (1,5,4) -2.50159 (1,5,6) 0.365974 (1,6,5) 6.08004
(1,5,6): (1,4,6) -3.00997 (1,5,5) -0.365974 (1,5,7) -0.365412 (1,6,6) 4.69403
(1,5,7): (1,4,7) -2.87928 (1,5,6) 0.365412 (1,5,8) -2.49923 (1,6,7) 6.08009
(1,5,8): (1,4,8) -1.18293 (1,5,7) 2.49923 (1,5,9) -1.34181 (1,6,8) 0.930830
(1,5,9): (1,4,9) -0.393314 (1,5,8) 1.34181 (1,5,10) -0.481697 (1,6,9) 0.138930
(1,5,10): (1,4,10) -0.136466 (1,5,9) 0.481697 (1,6,10) 2.542423E-02
(1,6,1): (1,5,1) -4.587087E-03 (1,6,2) 0.174875 (1,7,1) -7.125339E-02
(1,6,2): (1,5,2) -2.177513E-02 (1,6,1) -0.174875 (1,6,3) 0.642559 (1,7,2) -0.280413
(1,6,3): (1,5,3) -0.138225 (1,6,2) -0.642559 (1,6,4) 2.15407 (1,7,3) -1.19114
(1,6,4): (1,5,4) -0.930687 (1,6,3) -2.15407 (1,6,5) 7.71987 (1,7,4) -4.70317
(1,6,5): (1,5,5) -6.08004 (1,6,4) -7.71987 (1,6,6) -0.964250 (1,7,5) -17.7756
(1,6,6): (1,5,6) -4.69403 (1,6,5) 0.964250 (1,6,7) 0.964866 (1,7,6) -30.3229
(1,6,7): (1,5,7) -6.08009 (1,6,6) -0.964866 (1,6,8) -7.71730 (1,7,7) -17.7761
(1,6,8): (1,5,8) -0.930830 (1,6,7) 7.71730 (1,6,9) -2.14272 (1,7,8) -4.70538
(1,6,9): (1,5,9) -0.138930 (1,6,8) 2.14272 (1,6,10) -0.595711 (1,7,9) -1.20266
(1,6,10): (1,5,10) -2.542423E-02 (1,6,9) 0.595711 (1,7,10) -0.337961
(1,7,1): (1,6,1) 7.125339E-02 (1,7,2) -3.407652E-02 (1,8,1) -5.775064E-02
(1,7,2): (1,6,2) 0.280413 (1,7,1) 3.407652E-02 (1,7,3) -0.263969 (1,8,2) -0.224920
(1,7,3): (1,6,3) 1.19114 (1,7,2) 0.263969 (1,7,4) -1.29089 (1,8,3) -0.969282
(1,7,4): (1,6,4) 4.70317 (1,7,3) 1.29089 (1,7,5) -4.50209 (1,8,4) -3.96266
(1,7,5): (1,6,5) 17.7756 (1,7,4) 4.50209 (1,7,6) -11.7344 (1,8,5) -15.3998
(1,7,6): (1,6,6) 30.3229 (1,7,5) 11.7344 (1,7,7) 11.7346 (1,8,6) -59.4567
(1,7,7): (1,6,7) 17.7761 (1,7,6) -11.7346 (1,7,8) 4.50280 (1,8,7) -15.4001
(1,7,8): (1,6,8) 4.70538 (1,7,7) -4.50280 (1,7,9) 1.29277 (1,8,8) -3.96447
(1,7,9): (1,6,9) 1.20266 (1,7,8) -1.29277 (1,7,10) 0.264540 (1,8,9) -0.978669
(1,7,10): (1,6,10) 0.337961 (1,7,9) -0.264540 (1,8,10) -0.271164
(1,8,1): (1,7,1) 5.775064E-02 (1,8,2) -0.201207 (1,9,1) 3.943400E-02
(1,8,2): (1,7,2) 0.224920 (1,8,1) 0.201207 (1,8,3) -1.00862 (1,9,2) 0.183596
(1,8,3): (1,7,3) 0.969282 (1,8,2) 1.00862 (1,8,4) -4.29413 (1,9,3) 0.882333
(1,8,4): (1,7,4) 3.96266 (1,8,3) 4.29413 (1,8,5) -16.0071 (1,9,4) 3.83579
(1,8,5): (1,7,5) 15.3998 (1,8,4) 16.0071 (1,8,6) -53.5770 (1,9,5) 15.2911
(1,8,6): (1,7,6) 59.4567 (1,8,5) 53.5770 (1,8,7) 53.5768 (1,9,6) 59.3160
(1,8,7): (1,7,7) 15.4001 (1,8,6) -53.5768 (1,8,8) 16.0062 (1,9,7) 15.2912
(1,8,8): (1,7,8) 3.96447 (1,8,7) -16.0062 (1,8,9) 4.28817 (1,9,8) 3.83661
(1,8,9): (1,7,9) 0.978669 (1,8,8) -4.28817 (1,8,10) 0.971999 (1,9,9) 0.887813
(1,8,10): (1,7,10) 0.271164 (1,8,9) -0.971999 (1,9,10) 0.216571
(1,9,1): (1,8,1) -3.943400E-02 (1,9,2) -5.701930E-02 (1,10,1) 6.182431E-02
(1,9,2): (1,8,2) -0.183596 (1,9,1) 5.701930E-02 (1,9,3) -0.309005 (1,10,2) 0.260135
(1,9,3): (1,8,3) -0.882333 (1,9,2) 0.309005 (1,9,4) -1.32720 (1,10,3) 1.15395
(1,9,4): (1,8,4) -3.83579 (1,9,3) 1.32720 (1,9,5) -4.47150 (1,10,4) 4.67656
(1,9,5): (1,8,5) -15.2911 (1,9,4) 4.47150 (1,9,6) -11.7150 (1,10,5) 17.8845
(1,9,6): (1,8,6) -59.3160 (1,9,5) 11.7150 (1,9,7) 11.7150 (1,10,6) 30.4585
(1,9,7): (1,8,7) -15.2912 (1,9,6) -11.7150 (1,9,8) 4.47142 (1,10,7) 17.8848
(1,9,8): (1,8,8) -3.83661 (1,9,7) -4.47142 (1,9,9) 1.32613 (1,10,8) 4.67821
(1,9,9): (1,8,9) -0.887813 (1,9,8) -1.32613 (1,9,10) 0.300192 (1,10,9) 1.16338
(1,9,10): (1,8,10) -0.216571 (1,9,9) -0.300192 (1,10,10) 0.310867
(1,10,1): (1,9,1) -6.182431E-02 (1,10,2) 0.141089 (1,11,1) -1.405974E-03
(1,10,2): (1,9,2) -0.260135 (1,10,1) -0.141089 (1,10,3) 0.580732 (1,11,2) -1.677782E-02
(1,10,3): (1,9,3) -1.15395 (1,10,2) -0.580732 (1,10,4) 2.12886 (1,11,3) -0.138835
(1,10,4): (1,9,4) -4.67656 (1,10,3) -2.12886 (1,10,5) 7.87808 (1,11,4) -0.979887
(1,10,5): (1,9,5) -17.8845 (1,10,4) -7.87808 (1,10,6) -0.935554 (1,11,5) -6.30146
(1,10,6): (1,9,6) -30.4585 (1,10,5) 0.935554 (1,10,7) 0.935835 (1,11,6) -4.95674
(1,10,7): (1,9,7) -17.8848 (1,10,6) -0.935835 (1,10,8) -7.87675 (1,11,7) -6.30146
(1,10,8): (1,9,8) -4.67821 (1,10,7) 7.87675 (1,10,9) -2.12204 (1,11,8) -0.979844
(1,10,9): (1,9,9) -1.16338 (1,10,8) 2.12204 (1,10,10) -0.548072 (1,11,9) -0.138816
(1,10,10): (1,9,10) -0.310867 (1,10,9) 0.548072 (1,11,10) -1.822901E-02
(1,11,1): (1,10,1) 1.405974E-03 (1,11,2) 0.125698 (1,12,1) -2.346982E-02
(1,11,2): (1,10,2) 1.677782E-02 (1,11,1) -0.125698 (1,11,3) 0.458143 (1,12,2) -8.900011E-02
(1,11,3): (1,10,3) 0.138835 (1,11,2) -0.458143 (1,11,4) 1.27870 (1,12,3) -0.344995
(1,11,4): (1,10,4) 0.979887 (1,11,3) -1.27870 (1,11,5) 2.48806 (1,12,4) -1.13141
(1,11,5): (1,10,5) 6.30146 (1,11,4) -2.48806 (1,11,6) 0.352373 (1,12,5) -2.86797
(1,11,6): (1,10,6) 4.95674 (1,11,5) -0.352373 (1,11,7) -0.352097 (1,12,6) -3.00979
(1,11,7): (1,10,7) 6.30146 (1,11,6) 0.352097 (1,11,8) -2.48674 (1,12,7) -2.86810
(1,11,8): (1,10,8) 0.979844 (1,11,7) 2.48674 (1,11,9) -1.27196 (1,12,8) -1.13211
(1,11,9): (1,10,9) 0.138816 (1,11,8) 1.27196 (1,11,10) -0.427000 (1,12,9) -0.348780
(1,11,10): (1,10,10) 1.822901E-02 (1,11,9) 0.427000 (1,12,10) -0.107957
(1,12,1): (1,11,1) 2.346982E-02 (1,12,2) 6.014415E-02 (1,13,1) -1.609139E-02
(1,12,2): (1,11,2) 8.900011E-02 (1,12,1) -6.014415E-02 (1,12,3) 0.201863 (1,13,2) -5.539010E-02
(1,12,3): (1,11,3) 0.344995 (1,12,2) -0.201863 (1,12,4) 0.491178 (1,13,3) -0.191348
(1,12,4): (1,11,4) 1.13141 (1,12,3) -0.491178 (1,12,5) 0.757471 (1,13,4) -0.535357
(1,12,5): (1,11,5) 2.86797 (1,12,4) -0.757471 (1,12,6) 0.213774 (1,13,5) -1.09094
(1,12,6): (1,11,6) 3.00979 (1,12,5) -0.213774 (1,12,7) -0.213619 (1,13,6) -1.23478
(1,12,7): (1,11,7) 2.86810 (1,12,6) 0.213619 (1,12,8) -0.756747 (1,13,7) -1.09103
(1,12,8): (1,11,8) 1.13211 (1,12,7) 0.756747 (1,12,9) -0.487586 (1,13,8) -0.535884
(1,12,9): (1,11,9) 0.348780 (1,12,8) 0.487586 (1,12,10) -0.185991 (1,13,9) -0.194083
(1,12,10): (1,11,10) 0.107957 (1,12,9) 0.185991 (1,13,10) -6.816655E-02
(1,13,1): (1,12,1) 1.609139E-02 (1,13,2) 2.084358E-02 (1,14,1) -6.741393E-03
(1,13,2): (1,12,2) 5.539010E-02 (1,13,1) -2.084358E-02 (1,13,3) 6.589078E-02 (1,14,2) -2.173456E-02
(1,13,3): (1,12,3) 0.191348 (1,13,2) -6.589078E-02 (1,13,4) 0.147319 (1,14,3) -6.999059E-02
(1,13,4): (1,12,4) 0.535357 (1,13,3) -0.147319 (1,13,5) 0.203677 (1,14,4) -0.180227
(1,13,5): (1,12,5) 1.09094 (1,13,4) -0.203677 (1,13,6) 7.132816E-02 (1,14,5) -0.335970
(1,13,6): (1,12,6) 1.23478 (1,13,5) -7.132816E-02 (1,13,7) -7.126534E-02 (1,14,6) -0.388968
(1,13,7): (1,12,7) 1.09103 (1,13,6) 7.126534E-02 (1,13,8) -0.203391 (1,14,7) -0.336013
(1,13,8): (1,12,8) 0.535884 (1,13,7) 0.203391 (1,13,9) -0.145947 (1,14,8) -0.180464
(1,13,9): (1,12,9) 0.194083 (1,13,8) 0.145947 (1,13,10) -6.008466E-02 (1,14,9) -7.117749E-02
(1,13,10): (1,12,10) 6.816655E-02 (1,13,9) 6.008466E-02 (1,14,10) -2.701474E-02
(1,14,1): (1,13,1) 6.741393E-03 (1,14,2) 5.850545E-03 (1,15,1) -2.027417E-03
(1,14,2): (1,13,2) 2.173456E-02 (1,14,1) -5.850545E-03 (1,14,3) 1.763672E-02 (1,15,2) -6.227274E-03
(1,14,3): (1,13,3) 6.999059E-02 (1,14,2) -1.763672E-02 (1,14,4) 3.711874E-02 (1,15,3) -1.909850E-02
(1,14,4): (1,13,4) 0.180227 (1,14,3) -3.711874E-02 (1,14,5) 4.813727E-02 (1,15,4) -4.669200E-02
(1,14,5): (1,13,5) 0.335970 (1,14,4) -4.813727E-02 (1,14,6) 1.849600E-02 (1,15,5) -8.305828E-02
(1,14,6): (1,13,6) 0.388968 (1,14,5) -1.849600E-02 (1,14,7) -1.847537E-02 (1,15,6) -9.680861E-02
(1,14,7): (1,13,7) 0.336013 (1,14,6) 1.847537E-02 (1,14,8) -4.804608E-02 (1,15,7) -8.307204E-02
(1,14,8): (1,13,8) 0.180464 (1,14,7) 4.804608E-02 (1,14,9) -3.669745E-02 (1,15,8) -4.676765E-02
(1,14,9): (1,13,9) 7.117749E-02 (1,14,8) 3.669745E-02 (1,14,10) -1.592679E-02 (1,15,9) -1.946524E-02
(1,14,10): (1,13,10) 2.701474E-02 (1,14,9) 1.592679E-02 (1,15,10) -7.797835E-03
(1,15,1): (1,14,1) 2.027417E-03 (1,15,2) 1.650704E-03
(1,15,2): (1,14,2) 6.227274E-03 (1,15,1) -1.650704E-03 (1,15,3) 4.765678E-03
(1,15,3): (1,14,3) 1.909850E-02 (1,15,2) -4.765678E-03 (1,15,4) 9.527883E-03
(1,15,4): (1,14,4) 4.669200E-02 (1,15,3) -9.527883E-03 (1,15,5) 1.178366E-02
(1,15,5): (1,14,5) 8.305828E-02 (1,15,4) -1.178366E-02 (1,15,6) 4.756404E-03
(1,15,6): (1,14,6) 9.680861E-02 (1,15,5) -4.756404E-03 (1,15,7) -4.749524E-03
(1,15,7): (1,14,7) 8.307204E-02 (1,15,6) 4.749524E-03 (1,15,8) -1.175437E-02
(1,15,8): (1,14,8) 4.676765E-02 (1,15,7) 1.175437E-02 (1,15,9) -9.397786E-03
(1,15,9): (1,14,9) 1.946524E-02 (1,15,8) 9.397786E-03 (1,15,10) -4.259802E-03
(1,15,10): (1,14,10) 7.797835E-03 (1,15,9) 4.259802E-03

 WEL PACKAGE (WEL-1) FLOW RATES   PERIOD      2   STEP       28
 ----------------------------------------------------------------------------------------
   NUMBER   CELLID                    RATE       NAME                                    
 ----------------------------------------------------------------------------------------
     1      (1,8,6)              -227.37094      WEL                                     
 ----------------------------------------------------------------------------------------




 DRN PACKAGE (DRN-0) FLOW RATES   PERIOD      2   STEP       28
 ----------------------------------------------------------------------------------------
   NUMBER   CELLID                    RATE       NAME                                    
 ----------------------------------------------------------------------------------------
     1      (1,1,1)               0.0000000      SURF                                    
     2      (1,1,2)               0.0000000      SURF                                    
     3      (1,1,3)               0.0000000      SURF                                    
     4      (1,1,4)               0.0000000      SURF                                    
     5      (1,1,5)               0.0000000      SURF                                    
     6      (1,1,6)               0.0000000      SURF                                    
     7      (1,1,7)               0.0000000      SURF                                    
     8      (1,1,8)               0.0000000      SURF                                    
     9      (1,1,9)               0.0000000      SURF                                    
     10     (1,1,10)              0.0000000      SURF                                    
     11     (1,2,1)               0.0000000      SURF                                    
     12     (1,2,2)               0.0000000      SURF                                    
     13     (1,2,3)               0.0000000      SURF                                    
     14     (1,2,4)               0.0000000      SURF                                    
     15     (1,2,5)               0.0000000      SURF                                    
     16     (1,2,6)               0.0000000      SURF                                    
     17     (1,2,7)               0.0000000      SURF                                    
     18     (1,2,8)               0.0000000      SURF                                    
     19     (1,2,9)               0.0000000      SURF                                    
     20     (1,2,10)              0.0000000      SURF                                    
     21     (1,3,1)               0.0000000      SURF                                    
     22     (1,3,2)               0.0000000      SURF                                    
     23     (1,3,3)               0.0000000      SURF                                    
     24     (1,3,4)               0.0000000      SURF                                    
     25     (1,3,5)               0.0000000      SURF                                    
     26     (1,3,6)               0.0000000      SURF                                    
     27     (1,3,7)               0.0000000      SURF                                    
     28     (1,3,8)               0.0000000      SURF                                    
     29     (1,3,9)               0.0000000      SURF                                    
     30     (1,3,10)              0.0000000      SURF                                    
     31     (1,4,1)               0.0000000      SURF                                    
     32     (1,4,2)               0.0000000      SURF                                    
     33     (1,4,3)               0.0000000      SURF                                    
     34     (1,4,4)               0.0000000      SURF                                    
     35     (1,4,5)               0.0000000      SURF                                    
     36     (1,4,6)               0.0000000      SURF                                    
     37     (1,4,7)               0.0000000      SURF                                    
     38     (1,4,8)               0.0000000      SURF                                    
     39     (1,4,9)               0.0000000      SURF                                    
     40     (1,4,10)              0.0000000      SURF                                    
     41     (1,5,1)               0.0000000      SURF                                    
     42     (1,5,2)               0.0000000      SURF                                    
     43     (1,5,3)               0.0000000      SURF                                    
     44     (1,5,4)               0.0000000      SURF                                    
     45     (1,5,5)               0.0000000      SURF                                    
     46     (1,5,6)               0.0000000      SURF                                    
     47     (1,5,7)               0.0000000      SURF                                    
     48     (1,5,8)               0.0000000      SURF                                    
     49     (1,5,9)               0.0000000      SURF                                    
     50     (1,5,10)              0.0000000      SURF                                    
     51     (1,6,1)               0.0000000      SURF                                    
     52     (1,6,2)               0.0000000      SURF                                    
     53     (1,6,3)               0.0000000      SURF                                    
     54     (1,6,4)               0.0000000      SURF                                    
     55     (1,6,5)               0.0000000      SURF                                    
     56     (1,6,6)               0.0000000      SURF                                    
     57     (1,6,7)              -8.22183210E-09 SURF                                    
     58     (1,6,8)               0.0000000      SURF                                    
     59     (1,6,9)               0.0000000      SURF                                    
     60     (1,6,10)              0.0000000      SURF                                    
     61     (1,7,1)               0.0000000      SURF                                    
     62     (1,7,2)               0.0000000      SURF                                    
     63     (1,7,3)               0.0000000      SURF                                    
     64     (1,7,4)               0.0000000      SURF                                    
     65     (1,7,5)               0.0000000      SURF                                    
     66     (1,7,6)               0.0000000      SURF                                    
     67     (1,7,7)               0.0000000      SURF                                    
     68     (1,7,8)               0.0000000      SURF                                    
     69     (1,7,9)               0.0000000      SURF                                    
     70     (1,7,10)              0.0000000      SURF                                    
     71     (1,8,1)               0.0000000      SURF                                    
     72     (1,8,2)               0.0000000      SURF                                    
     73     (1,8,3)               0.0000000      SURF                                    
     74     (1,8,4)               0.0000000      SURF                                    
     75     (1,8,5)               0.0000000      SURF                                    
     76     (1,8,6)               0.0000000      SURF                                    
     77     (1,8,7)               0.0000000      SURF                                    
     78     (1,8,8)               0.0000000      SURF                                    
     79     (1,8,9)               0.0000000      SURF                                    
     80     (1,8,10)              0.0000000      SURF                                    
     81     (1,9,1)               0.0000000      SURF                                    
     82     (1,9,2)               0.0000000      SURF                                    
     83     (1,9,3)               0.0000000      SURF                                    
     84     (1,9,4)               0.0000000      SURF                                    
     85     (1,9,5)               0.0000000      SURF                                    
     86     (1,9,6)               0.0000000      SURF                                    
     87     (1,9,7)               0.0000000      SURF                                    
     88     (1,9,8)               0.0000000      SURF                                    
     89     (1,9,9)               0.0000000      SURF                                    
     90     (1,9,10)              0.0000000      SURF                                    
     91     (1,10,1)              0.0000000      SURF                                    
     92     (1,10,2)              0.0000000      SURF                                    
     93     (1,10,3)              0.0000000      SURF                                    
     94     (1,10,4)              0.0000000      SURF                                    
     95     (1,10,5)              0.0000000      SURF                                    
     96     (1,10,6)              0.0000000      SURF                                    
     97     (1,10,7)             -3.91068170E-07 SURF                                    
     98     (1,10,8)              0.0000000      SURF                                    
     99     (1,10,9)              0.0000000      SURF                                    
    100     (1,10,10)             0.0000000      SURF                                    
    101     (1,11,1)              0.0000000      SURF                                    
    102     (1,11,2)              0.0000000      SURF                                    
    103     (1,11,3)              0.0000000      SURF                                    
    104     (1,11,4)              0.0000000      SURF                                    
    105     (1,11,5)              0.0000000      SURF                                    
    106     (1,11,6)              0.0000000      SURF                                    
    107     (1,11,7)              0.0000000      SURF                                    
    108     (1,11,8)              0.0000000      SURF                                    
    109     (1,11,9)              0.0000000      SURF                                    
    110     (1,11,10)             0.0000000      SURF                                    
    111     (1,12,1)              0.0000000      SURF                                    
    112     (1,12,2)              0.0000000      SURF                                    
    113     (1,12,3)              0.0000000      SURF                                    
    114     (1,12,4)              0.0000000      SURF                                    
    115     (1,12,5)              0.0000000      SURF                                    
    116     (1,12,6)              0.0000000      SURF                                    
    117     (1,12,7)              0.0000000      SURF                                    
    118     (1,12,8)              0.0000000      SURF                                    
    119     (1,12,9)              0.0000000      SURF                                    
    120     (1,12,10)             0.0000000      SURF                                    
    121     (1,13,1)              0.0000000      SURF                                    
    122     (1,13,2)              0.0000000      SURF                                    
    123     (1,13,3)              0.0000000      SURF                                    
    124     (1,13,4)              0.0000000      SURF                                    
    125     (1,13,5)              0.0000000      SURF                                    
    126     (1,13,6)              0.0000000      SURF                                    
    127     (1,13,7)              0.0000000      SURF                                    
    128     (1,13,8)              0.0000000      SURF                                    
    129     (1,13,9)              0.0000000      SURF                                    
    130     (1,13,10)             0.0000000      SURF                                    
    131     (1,14,1)              0.0000000      SURF                                    
    132     (1,14,2)              0.0000000      SURF                                    
    133     (1,14,3)              0.0000000      SURF                                    
    134     (1,14,4)              0.0000000      SURF                                    
    135     (1,14,5)              0.0000000      SURF                                    
    136     (1,14,6)              0.0000000      SURF                                    
    137     (1,14,7)              0.0000000      SURF                                    
    138     (1,14,8)              0.0000000      SURF                                    
    139     (1,14,9)              0.0000000      SURF                                    
    140     (1,14,10)             0.0000000      SURF                                    
    141     (1,15,1)              0.0000000      SURF                                    
    142     (1,15,2)              0.0000000      SURF                                    
    143     (1,15,3)              0.0000000      SURF                                    
    144     (1,15,4)              0.0000000      SURF                                    
    145     (1,15,5)              0.0000000      SURF                                    
    146     (1,15,6)              0.0000000      SURF                                    
    147     (1,15,7)              0.0000000      SURF                                    
    148     (1,15,8)              0.0000000      SURF                                    
    149     (1,15,9)              0.0000000      SURF                                    
    150     (1,15,10)             0.0000000      SURF                                    
 ----------------------------------------------------------------------------------------




 API PACKAGE (MAR) FLOW RATES   PERIOD      2   STEP       28
 -----------------------------------------------
   NUMBER   CELLID                    RATE      
 -----------------------------------------------
     1      (1,6,5)               32.538328     
     2      (1,6,6)               32.538328     
     3      (1,6,7)               32.538328     
     4      (1,10,5)              32.998850     
     5      (1,10,6)              32.998850     
     6      (1,10,7)              32.998850     
 -----------------------------------------------



1
  HEAD IN LAYER   1 AT END OF TIME STEP  28 IN STRESS PERIOD    2
  ---------------------------------------------------------------------------

            1           2           3           4           5           6           7           8           9          10
 ........................................................................................................................
   1   1.7870E-04  4.6651E-04  1.2411E-03  2.6814E-03  4.3701E-03  5.0683E-03  4.3719E-03  2.6899E-03  1.2769E-03  5.9889E-04
   2   5.3540E-04  1.4579E-03  4.0381E-03  9.0667E-03  1.5224E-02  1.7663E-02  1.5229E-02  9.0907E-03  4.1427E-03  1.8591E-03
   3   1.6346E-03  4.6452E-03  1.3435E-02  3.1558E-02  5.5121E-02  6.3672E-02  5.5135E-02  3.1627E-02  1.3747E-02  5.8835E-03
   4   4.0562E-03  1.2081E-02  3.6809E-02  9.1996E-02  0.1716      0.1950      0.1717      9.2160E-02  3.7563E-02  1.5184E-02
   5   7.3731E-03  2.3103E-02  7.5263E-02  0.2078      0.4472      0.4821      0.4473      0.2080      7.6595E-02  2.8792E-02
   6   7.8314E-03  2.5275E-02  8.8964E-02  0.2981      0.9999      0.9123       1.000      0.2984      9.0364E-02  3.1326E-02
   7   7.1166E-04 -2.6957E-03 -2.9100E-02 -0.1586     -0.6160      -1.866     -0.6160     -0.1585     -2.8825E-02 -2.3645E-03
   8  -5.0630E-03 -2.5194E-02 -0.1263     -0.5612      -2.257      -9.177      -2.257     -0.5613     -0.1270     -2.9487E-02
   9  -1.1191E-03 -6.8217E-03 -3.7743E-02 -0.1710     -0.6259      -1.876     -0.6259     -0.1710     -3.7856E-02 -7.8133E-03
  10   5.0602E-03  1.9142E-02  7.6773E-02  0.2838       1.000      0.9149       1.000      0.2839      7.7587E-02  2.3201E-02
  11   4.9196E-03  1.7468E-02  6.2995E-02  0.1885      0.4271      0.4608      0.4271      0.1887      6.3812E-02  2.1383E-02
  12   2.5738E-03  8.5831E-03  2.8712E-02  7.7452E-02  0.1521      0.1731      0.1521      7.7538E-02  2.9155E-02  1.0610E-02
  13   9.6507E-04  3.0488E-03  9.6315E-03  2.4328E-02  4.4605E-02  5.1701E-02  4.4611E-02  2.4362E-02  9.8033E-03  3.8007E-03
  14   2.9100E-04  8.7600E-04  2.6392E-03  6.3487E-03  1.1157E-02  1.3004E-02  1.1159E-02  6.3599E-03  2.6925E-03  1.1002E-03
  15   8.8265E-05  2.5333E-04  7.2986E-04  1.6825E-03  2.8605E-03  3.3360E-03  2.8612E-03  1.6861E-03  7.4649E-04  3.2054E-04

 HEAD WILL BE SAVED ON UNIT 1100 AT END OF TIME STEP   28, STRESS PERIOD    2


  VOLUME BUDGET FOR ENTIRE MODEL AT END OF TIME STEP   28, STRESS PERIOD   2
  ---------------------------------------------------------------------------------------------------

     CUMULATIVE VOLUME      L**3       RATES FOR THIS TIME STEP      L**3/T          PACKAGE NAME    
     ------------------                 ------------------------                     ----------------

           IN:                                      IN:
           ---                                      ---
              STO-SS =          17.3670                STO-SS =       3.1759E-02     STORAGE                          
              STO-SY =       45067.0981                STO-SY =          71.6663     STORAGE                          
                 WEL =           0.0000                   WEL =           0.0000     WEL-1                            
                 DRN =           0.0000                   DRN =           0.0000     DRN-0                            
                 API =       56047.5806                   API =         196.6115     MAR                              
                 CHD =       2.0279E-08                   CHD =           0.0000     CHD_0                            

            TOTAL IN =      101132.0457              TOTAL IN =         268.3096

          OUT:                                     OUT:
          ----                                     ----
              STO-SS =          14.2789                STO-SS =       2.0760E-02     STORAGE                          
              STO-SY =       27753.1888                STO-SY =          40.9179     STORAGE                          
                 WEL =       73364.5779                   WEL =         227.3709     WEL-1                            
                 DRN =       8.2861E-05                   DRN =       3.9929E-07     DRN-0                            
                 API =           0.0000                   API =           0.0000     MAR                              
                 CHD =       2.0705E-08                   CHD =           0.0000     CHD_0                            

           TOTAL OUT =      101132.0457             TOTAL OUT =         268.3096

            IN - OUT =      -6.3215E-07              IN - OUT =      -3.0877E-09

 PERCENT DISCREPANCY =          -0.00     PERCENT DISCREPANCY =          -0.00




         TIME SUMMARY AT END OF TIME STEP   28 IN STRESS PERIOD    2
                    SECONDS     MINUTES      HOURS       DAYS        YEARS
                    -----------------------------------------------------------
   TIME STEP LENGTH 8.64000E+05  14400.      240.00      10.000     2.73785E-02
 STRESS PERIOD TIME 2.41920E+07 4.03200E+05  6720.0      280.00     0.76660    
         TOTAL TIME 2.42784E+07 4.04640E+05  6744.0      281.00     0.76934    


end timestep


start timestep kper="2" kstp="29" mode="normal"

 UBDSV1 SAVING           STO-SS ON UNIT   1099 AT TIME STEP     29, STRESS PERIOD      2
 UBDSV1 SAVING           STO-SY ON UNIT   1099 AT TIME STEP     29, STRESS PERIOD      2
 UBDSV1 SAVING     FLOW-JA-FACE ON UNIT   1099 AT TIME STEP     29, STRESS PERIOD      2
 UBDSV06 SAVING       DATA-SPDIS IN MODEL GWF              PACKAGE NPF             CONNECTED TO MODEL GWF              PACKAGE NPF              ON UNIT   1099 AT TIME STEP     29, STRESS PERIOD      2
 UBDSV06 SAVING              WEL IN MODEL GWF              PACKAGE GWF             CONNECTED TO MODEL GWF              PACKAGE WEL-1            ON UNIT   1099 AT TIME STEP     29, STRESS PERIOD      2
 UBDSV06 SAVING              DRN IN MODEL GWF              PACKAGE GWF             CONNECTED TO MODEL GWF              PACKAGE DRN-0            ON UNIT   1099 AT TIME STEP     29, STRESS PERIOD      2
 UBDSV06 SAVING              API IN MODEL GWF              PACKAGE GWF             CONNECTED TO MODEL GWF              PACKAGE MAR              ON UNIT   1099 AT TIME STEP     29, STRESS PERIOD      2
 UBDSV06 SAVING              CHD IN MODEL GWF              PACKAGE GWF             CONNECTED TO MODEL GWF              PACKAGE CHD_0            ON UNIT   1099 AT TIME STEP     29, STRESS PERIOD      2

    CALCULATED INTERCELL FLOW FOR PERIOD 2 STEP 29
(1,1,1): (1,1,2) 3.338145E-03 (1,2,1) 4.128031E-03
(1,1,2): (1,1,1) -3.338145E-03 (1,1,3) 8.821915E-03 (1,2,2) 1.118423E-02
(1,1,3): (1,1,2) -8.821915E-03 (1,1,4) 1.609162E-02 (1,2,3) 3.089824E-02
(1,1,4): (1,1,3) -1.609162E-02 (1,1,5) 1.858808E-02 (1,2,4) 6.936465E-02
(1,1,5): (1,1,4) -1.858808E-02 (1,1,6) 7.684736E-03 (1,2,5) 0.116619
(1,1,6): (1,1,5) -7.684736E-03 (1,1,7) -7.662233E-03 (1,2,6) 0.135036
(1,1,7): (1,1,6) 7.662233E-03 (1,1,8) -1.850398E-02 (1,2,7) 0.116657
(1,1,8): (1,1,7) 1.850398E-02 (1,1,9) -1.575957E-02 (1,2,8) 6.955258E-02
(1,1,9): (1,1,8) 1.575957E-02 (1,1,10) -7.672692E-03 (1,2,9) 3.170832E-02
(1,1,10): (1,1,9) 7.672692E-03 (1,2,10) 1.427378E-02
(1,2,1): (1,1,1) -4.128031E-03 (1,2,2) 1.039429E-02 (1,3,1) 1.242157E-02
(1,2,2): (1,1,2) -1.118423E-02 (1,2,1) -1.039429E-02 (1,2,3) 2.853546E-02 (1,3,2) 3.509871E-02
(1,2,3): (1,1,3) -3.089824E-02 (1,2,2) -2.853546E-02 (1,2,4) 5.455234E-02 (1,3,3) 0.101364
(1,2,4): (1,1,4) -6.936465E-02 (1,2,3) -5.455234E-02 (1,2,5) 6.581854E-02 (1,3,4) 0.238870
(1,2,5): (1,1,5) -0.116619 (1,2,4) -6.581854E-02 (1,2,6) 2.608129E-02 (1,3,5) 0.419816
(1,2,6): (1,1,6) -0.135036 (1,2,5) -2.608129E-02 (1,2,7) -2.602061E-02 (1,3,6) 0.483491
(1,2,7): (1,1,7) -0.116657 (1,2,6) 2.602061E-02 (1,2,8) -6.558466E-02 (1,3,7) 0.419925
(1,2,8): (1,1,8) -6.955258E-02 (1,2,7) 6.558466E-02 (1,2,9) -5.359780E-02 (1,3,8) 0.239410
(1,2,9): (1,1,9) -3.170832E-02 (1,2,8) 5.359780E-02 (1,2,10) -2.510608E-02 (1,3,9) 0.103752
(1,2,10): (1,1,10) -1.427378E-02 (1,2,9) 2.510608E-02 (1,3,10) 4.449596E-02
(1,3,1): (1,2,1) -1.242157E-02 (1,3,2) 3.307097E-02 (1,4,1) 2.659370E-02
(1,3,2): (1,2,2) -3.509871E-02 (1,3,1) -3.307097E-02 (1,3,3) 9.479676E-02 (1,4,2) 7.959858E-02
(1,3,3): (1,2,3) -0.101364 (1,3,2) -9.479676E-02 (1,3,4) 0.191994 (1,4,3) 0.245635
(1,3,4): (1,2,4) -0.238870 (1,3,3) -0.191994 (1,3,5) 0.246456 (1,4,4) 0.628431
(1,3,5): (1,2,5) -0.419816 (1,3,4) -0.246456 (1,3,6) 8.951017E-02 (1,4,5) 1.20873
(1,3,6): (1,2,6) -0.483491 (1,3,5) -8.951017E-02 (1,3,7) -8.934143E-02 (1,4,6) 1.36243
(1,3,7): (1,2,7) -0.419925 (1,3,6) 8.934143E-02 (1,3,8) -0.245789 (1,4,7) 1.20895
(1,3,8): (1,2,8) -0.239410 (1,3,7) 0.245789 (1,3,9) -0.189189 (1,4,8) 0.629527
(1,3,9): (1,2,9) -0.103752 (1,3,8) 0.189189 (1,3,10) -8.435046E-02 (1,4,9) 0.250609
(1,3,10): (1,2,10) -4.449596E-02 (1,3,9) 8.435046E-02 (1,4,10) 9.998345E-02
(1,4,1): (1,3,1) -2.659370E-02 (1,4,2) 8.607928E-02 (1,5,1) 3.509729E-02
(1,4,2): (1,3,2) -7.959858E-02 (1,4,1) -8.607928E-02 (1,4,3) 0.260858 (1,5,2) 0.113864
(1,4,3): (1,3,3) -0.245635 (1,4,2) -0.260858 (1,4,4) 0.574588 (1,5,3) 0.392226
(1,4,4): (1,3,4) -0.628431 (1,4,3) -0.574588 (1,4,5) 0.824621 (1,5,4) 1.18397
(1,4,5): (1,3,5) -1.20873 (1,4,4) -0.824621 (1,4,6) 0.241589 (1,5,5) 2.87596
(1,4,6): (1,3,6) -1.36243 (1,4,5) -0.241589 (1,4,7) -0.241204 (1,5,6) 2.99803
(1,4,7): (1,3,7) -1.20895 (1,4,6) 0.241204 (1,4,8) -0.823070 (1,5,7) 2.87624
(1,4,8): (1,3,8) -0.629527 (1,4,7) 0.823070 (1,4,9) -0.567879 (1,5,8) 1.18533
(1,4,9): (1,3,9) -0.250609 (1,4,8) 0.567879 (1,4,10) -0.234953 (1,5,9) 0.398554
(1,4,10): (1,3,10) -9.998345E-02 (1,4,9) 0.234953 (1,5,10) 0.141155
(1,5,1): (1,4,1) -3.509729E-02 (1,5,2) 0.164886 (1,6,1) 2.821632E-03
(1,5,2): (1,4,2) -0.113864 (1,5,1) -0.164886 (1,5,3) 0.539624 (1,6,2) 1.551111E-02
(1,5,3): (1,4,3) -0.392226 (1,5,2) -0.539624 (1,5,4) 1.36772 (1,6,3) 0.117437
(1,5,4): (1,4,4) -1.18397 (1,5,3) -1.36772 (1,5,5) 2.51105 (1,6,4) 0.881315
(1,5,5): (1,4,5) -2.87596 (1,5,4) -2.51105 (1,5,6) 0.360960 (1,6,5) 6.02504
(1,5,6): (1,4,6) -2.99803 (1,5,5) -0.360960 (1,5,7) -0.360305 (1,6,6) 4.61962
(1,5,7): (1,4,7) -2.87624 (1,5,6) 0.360305 (1,5,8) -2.50838 (1,6,7) 6.02508
(1,5,8): (1,4,8) -1.18533 (1,5,7) 2.50838 (1,5,9) -1.35593 (1,6,8) 0.881404
(1,5,9): (1,4,9) -0.398554 (1,5,8) 1.35593 (1,5,10) -0.492590 (1,6,9) 0.117848
(1,5,10): (1,4,10) -0.141155 (1,5,9) 0.492590 (1,6,10) 1.772726E-02
(1,6,1): (1,5,1) -2.821632E-03 (1,6,2) 0.177596 (1,7,1) -7.746583E-02
(1,6,2): (1,5,2) -1.551111E-02 (1,6,1) -0.177596 (1,6,3) 0.642074 (1,7,2) -0.297632
(1,6,3): (1,5,3) -0.117437 (1,6,2) -0.642074 (1,6,4) 2.14064 (1,7,3) -1.24031
(1,6,4): (1,5,4) -0.881315 (1,6,3) -2.14064 (1,6,5) 7.72625 (1,7,4) -4.82198
(1,6,5): (1,5,5) -6.02504 (1,6,4) -7.72625 (1,6,6) -0.988730 (1,7,5) -18.0256
(1,6,6): (1,5,6) -4.61962 (1,6,5) 0.988730 (1,6,7) 0.989434 (1,7,6) -30.5695
(1,6,7): (1,5,7) -6.02508 (1,6,6) -0.989434 (1,6,8) -7.72340 (1,7,7) -18.0261
(1,6,8): (1,5,8) -0.881404 (1,6,7) 7.72340 (1,6,9) -2.12844 (1,7,8) -4.82448
(1,6,9): (1,5,9) -0.117848 (1,6,8) 2.12844 (1,6,10) -0.593177 (1,7,9) -1.25304
(1,6,10): (1,5,10) -1.772726E-02 (1,6,9) 0.593177 (1,7,10) -0.359861
(1,7,1): (1,6,1) 7.746583E-02 (1,7,2) -4.232621E-02 (1,8,1) -6.196996E-02
(1,7,2): (1,6,2) 0.297632 (1,7,1) 4.232621E-02 (1,7,3) -0.295947 (1,8,2) -0.235918
(1,7,3): (1,6,3) 1.24031 (1,7,2) 0.295947 (1,7,4) -1.37000 (1,8,3) -0.998785
(1,7,4): (1,6,4) 4.82198 (1,7,3) 1.37000 (1,7,5) -4.60052 (1,8,4) -4.02307
(1,7,5): (1,6,5) 18.0256 (1,7,4) 4.60052 (1,7,6) -11.7310 (1,8,5) -15.4436
(1,7,6): (1,6,6) 30.5695 (1,7,5) 11.7310 (1,7,7) 11.7312 (1,8,6) -59.1147
(1,7,7): (1,6,7) 18.0261 (1,7,6) -11.7312 (1,7,8) 4.60128 (1,8,7) -15.4440
(1,7,8): (1,6,8) 4.82448 (1,7,7) -4.60128 (1,7,9) 1.37180 (1,8,8) -4.02509
(1,7,9): (1,6,9) 1.25304 (1,7,8) -1.37180 (1,7,10) 0.295095 (1,8,9) -1.00902
(1,7,10): (1,6,10) 0.359861 (1,7,9) -0.295095 (1,8,10) -0.285260
(1,8,1): (1,7,1) 6.196996E-02 (1,8,2) -0.216240 (1,9,1) 4.300026E-02
(1,8,2): (1,7,2) 0.235918 (1,8,1) 0.216240 (1,8,3) -1.05927 (1,9,2) 0.194642
(1,8,3): (1,7,3) 0.998785 (1,8,2) 1.05927 (1,8,4) -4.40580 (1,9,3) 0.914769
(1,8,4): (1,7,4) 4.02307 (1,8,3) 4.40580 (1,8,5) -16.0939 (1,9,4) 3.90419
(1,8,5): (1,7,5) 15.4436 (1,8,4) 16.0939 (1,8,6) -53.1648 (1,9,5) 15.3452
(1,8,6): (1,7,6) 59.1147 (1,8,5) 53.1648 (1,8,7) 53.1647 (1,9,6) 58.9905
(1,8,7): (1,7,7) 15.4440 (1,8,6) -53.1647 (1,8,8) 16.0929 (1,9,7) 15.3454
(1,8,8): (1,7,8) 4.02509 (1,8,7) -16.0929 (1,8,9) 4.39908 (1,9,8) 3.90513
(1,8,9): (1,7,9) 1.00902 (1,8,8) -4.39908 (1,8,10) 1.01893 (1,9,9) 0.920876
(1,8,10): (1,7,10) 0.285260 (1,8,9) -1.01893 (1,9,10) 0.230405
(1,9,1): (1,8,1) -4.300026E-02 (1,9,2) -6.456566E-02 (1,10,1) 6.768223E-02
(1,9,2): (1,8,2) -0.194642 (1,9,1) 6.456566E-02 (1,9,3) -0.338108 (1,10,2) 0.277255
(1,9,3): (1,8,3) -0.914769 (1,9,2) 0.338108 (1,9,4) -1.40143 (1,10,3) 1.20376
(1,9,4): (1,8,4) -3.90419 (1,9,3) 1.40143 (1,9,5) -4.56875 (1,10,4) 4.79521
(1,9,5): (1,8,5) -15.3452 (1,9,4) 4.56875 (1,9,6) -11.7116 (1,10,5) 18.1244
(1,9,6): (1,8,6) -58.9905 (1,9,5) 11.7116 (1,9,7) 11.7116 (1,10,6) 30.6937
(1,9,7): (1,8,7) -15.3454 (1,9,6) -11.7116 (1,9,8) 4.56865 (1,10,7) 18.1247
(1,9,8): (1,8,8) -3.90513 (1,9,7) -4.56865 (1,9,9) 1.40014 (1,10,8) 4.79710
(1,9,9): (1,8,9) -0.920876 (1,9,8) -1.40014 (1,9,10) 0.327782 (1,10,9) 1.21429
(1,9,10): (1,8,10) -0.230405 (1,9,9) -0.327782 (1,10,10) 0.332491
(1,10,1): (1,9,1) -6.768223E-02 (1,10,2) 0.144773 (1,11,1) 1.313273E-04
(1,10,2): (1,9,2) -0.277255 (1,10,1) -0.144773 (1,10,3) 0.583897 (1,11,2) -1.129771E-02
(1,10,3): (1,9,3) -1.20376 (1,10,2) -0.583897 (1,10,4) 2.11958 (1,11,3) -0.119721
(1,10,4): (1,9,4) -4.79521 (1,10,3) -2.11958 (1,10,5) 7.87632 (1,11,4) -0.930495
(1,10,5): (1,9,5) -18.1244 (1,10,4) -7.87632 (1,10,6) -0.960056 (1,11,5) -6.23472
(1,10,6): (1,9,6) -30.6937 (1,10,5) 0.960056 (1,10,7) 0.960385 (1,11,6) -4.86790
(1,10,7): (1,9,7) -18.1247 (1,10,6) -0.960385 (1,10,8) -7.87481 (1,11,7) -6.23472
(1,10,8): (1,9,8) -4.79710 (1,10,7) 7.87481 (1,10,9) -2.11212 (1,11,8) -0.930400
(1,10,9): (1,9,9) -1.21429 (1,10,8) 2.11212 (1,10,10) -0.549330 (1,11,9) -0.119442
(1,10,10): (1,9,10) -0.332491 (1,10,9) 0.549330 (1,11,10) -1.151831E-02
(1,11,1): (1,10,1) -1.313273E-04 (1,11,2) 0.133329 (1,12,1) -2.522959E-02
(1,11,2): (1,10,2) 1.129771E-02 (1,11,1) -0.133329 (1,11,3) 0.474978 (1,12,2) -9.291151E-02
(1,11,3): (1,10,3) 0.119721 (1,11,2) -0.474978 (1,11,4) 1.29972 (1,12,3) -0.352452
(1,11,4): (1,10,4) 0.930495 (1,11,3) -1.29972 (1,11,5) 2.50101 (1,12,4) -1.13940
(1,11,5): (1,10,5) 6.23472 (1,11,4) -2.50101 (1,11,6) 0.349997 (1,12,5) -2.87064
(1,11,6): (1,10,6) 4.86790 (1,11,5) -0.349997 (1,11,7) -0.349666 (1,12,6) -3.00434
(1,11,7): (1,10,7) 6.23472 (1,11,6) 0.349666 (1,11,8) -2.49948 (1,12,7) -2.87078
(1,11,8): (1,10,8) 0.930400 (1,11,7) 2.49948 (1,11,9) -1.29212 (1,12,8) -1.14019
(1,11,9): (1,10,9) 0.119442 (1,11,8) 1.29212 (1,11,10) -0.440949 (1,12,9) -0.356610
(1,11,10): (1,10,10) 1.151831E-02 (1,11,9) 0.440949 (1,12,10) -0.113153
(1,12,1): (1,11,1) 2.522959E-02 (1,12,2) 6.561939E-02 (1,13,1) -1.804993E-02
(1,12,2): (1,11,2) 9.291151E-02 (1,12,1) -6.561939E-02 (1,12,3) 0.215124 (1,13,2) -6.027038E-02
(1,12,3): (1,11,3) 0.352452 (1,12,2) -0.215124 (1,12,4) 0.511565 (1,13,3) -0.203118
(1,12,4): (1,11,4) 1.13940 (1,12,3) -0.511565 (1,12,5) 0.775563 (1,13,4) -0.557073
(1,12,5): (1,11,5) 2.87064 (1,12,4) -0.775563 (1,12,6) 0.219307 (1,13,5) -1.12042
(1,12,6): (1,11,6) 3.00434 (1,12,5) -0.219307 (1,12,7) -0.219116 (1,13,6) -1.26588
(1,12,7): (1,11,7) 2.87078 (1,12,6) 0.219116 (1,12,8) -0.774699 (1,13,7) -1.12053
(1,12,8): (1,11,8) 1.14019 (1,12,7) 0.774699 (1,12,9) -0.507406 (1,13,8) -0.557694
(1,12,9): (1,11,9) 0.356610 (1,12,8) 0.507406 (1,12,10) -0.197290 (1,13,9) -0.206250
(1,12,10): (1,11,10) 0.113153 (1,12,9) 0.197290 (1,13,10) -7.449972E-02
(1,13,1): (1,12,1) 1.804993E-02 (1,13,2) 2.339668E-02 (1,14,1) -7.814625E-03
(1,13,2): (1,12,2) 6.027038E-02 (1,13,1) -2.339668E-02 (1,13,3) 7.225939E-02 (1,14,2) -2.444886E-02
(1,13,3): (1,12,3) 0.203118 (1,13,2) -7.225939E-02 (1,13,4) 0.157768 (1,14,3) -7.678147E-02
(1,13,4): (1,12,4) 0.557073 (1,13,3) -0.157768 (1,13,5) 0.214087 (1,14,4) -0.193624
(1,13,5): (1,12,5) 1.12042 (1,13,4) -0.214087 (1,13,6) 7.529244E-02 (1,14,5) -0.355792
(1,13,6): (1,12,6) 1.26588 (1,13,5) -7.529244E-02 (1,13,7) -7.521298E-02 (1,14,6) -0.411148
(1,13,7): (1,12,7) 1.12053 (1,13,6) 7.521298E-02 (1,13,8) -0.213737 (1,14,7) -0.355845
(1,13,8): (1,12,8) 0.557694 (1,13,7) 0.213737 (1,13,9) -0.156136 (1,14,8) -0.193913
(1,13,9): (1,12,9) 0.206250 (1,13,8) 0.156136 (1,13,10) -6.555064E-02 (1,14,9) -7.818544E-02
(1,13,10): (1,12,10) 7.449972E-02 (1,13,9) 6.555064E-02 (1,14,10) -3.052450E-02
(1,14,1): (1,13,1) 7.814625E-03 (1,14,2) 6.762618E-03 (1,15,1) -2.415944E-03
(1,14,2): (1,13,2) 2.444886E-02 (1,14,1) -6.762618E-03 (1,14,3) 1.992914E-02 (1,15,2) -7.207144E-03
(1,14,3): (1,13,3) 7.678147E-02 (1,14,2) -1.992914E-02 (1,14,4) 4.096724E-02 (1,15,3) -2.156729E-02
(1,14,4): (1,13,4) 0.193624 (1,14,3) -4.096724E-02 (1,14,5) 5.214679E-02 (1,15,4) -5.165448E-02
(1,14,5): (1,13,5) 0.355792 (1,14,4) -5.214679E-02 (1,14,6) 2.011959E-02 (1,15,5) -9.059547E-02
(1,14,6): (1,13,6) 0.411148 (1,14,5) -2.011959E-02 (1,14,7) -2.009278E-02 (1,15,6) -0.105374
(1,14,7): (1,13,7) 0.355845 (1,14,6) 2.009278E-02 (1,14,8) -5.203200E-02 (1,15,7) -9.061308E-02
(1,14,8): (1,13,8) 0.193913 (1,14,7) 5.203200E-02 (1,14,9) -4.045183E-02 (1,15,8) -5.174887E-02
(1,14,9): (1,13,9) 7.818544E-02 (1,14,8) 4.045183E-02 (1,14,10) -1.789570E-02 (1,15,9) -2.201277E-02
(1,14,10): (1,13,10) 3.052450E-02 (1,14,9) 1.789570E-02 (1,15,10) -9.064657E-03
(1,15,1): (1,14,1) 2.415944E-03 (1,15,2) 1.971440E-03
(1,15,2): (1,14,2) 7.207144E-03 (1,15,1) -1.971440E-03 (1,15,3) 5.569229E-03
(1,15,3): (1,14,3) 2.156729E-02 (1,15,2) -5.569229E-03 (1,15,4) 1.088326E-02
(1,15,4): (1,14,4) 5.165448E-02 (1,15,3) -1.088326E-02 (1,15,5) 1.322073E-02
(1,15,5): (1,14,5) 9.059547E-02 (1,15,4) -1.322073E-02 (1,15,6) 5.353883E-03
(1,15,6): (1,14,6) 0.105374 (1,15,5) -5.353883E-03 (1,15,7) -5.344684E-03
(1,15,7): (1,14,7) 9.061308E-02 (1,15,6) 5.344684E-03 (1,15,8) -1.318274E-02
(1,15,8): (1,14,8) 5.174887E-02 (1,15,7) 1.318274E-02 (1,15,9) -1.071908E-02
(1,15,9): (1,14,9) 2.201277E-02 (1,15,8) 1.071908E-02 (1,15,10) -4.948124E-03
(1,15,10): (1,14,10) 9.064657E-03 (1,15,9) 4.948124E-03

 WEL PACKAGE (WEL-1) FLOW RATES   PERIOD      2   STEP       29
 ----------------------------------------------------------------------------------------
   NUMBER   CELLID                    RATE       NAME                                    
 ----------------------------------------------------------------------------------------
     1      (1,8,6)              -225.66016      WEL                                     
 ----------------------------------------------------------------------------------------




 DRN PACKAGE (DRN-0) FLOW RATES   PERIOD      2   STEP       29
 ----------------------------------------------------------------------------------------
   NUMBER   CELLID                    RATE       NAME                                    
 ----------------------------------------------------------------------------------------
     1      (1,1,1)               0.0000000      SURF                                    
     2      (1,1,2)               0.0000000      SURF                                    
     3      (1,1,3)               0.0000000      SURF                                    
     4      (1,1,4)               0.0000000      SURF                                    
     5      (1,1,5)               0.0000000      SURF                                    
     6      (1,1,6)               0.0000000      SURF                                    
     7      (1,1,7)               0.0000000      SURF                                    
     8      (1,1,8)               0.0000000      SURF                                    
     9      (1,1,9)               0.0000000      SURF                                    
     10     (1,1,10)              0.0000000      SURF                                    
     11     (1,2,1)               0.0000000      SURF                                    
     12     (1,2,2)               0.0000000      SURF                                    
     13     (1,2,3)               0.0000000      SURF                                    
     14     (1,2,4)               0.0000000      SURF                                    
     15     (1,2,5)               0.0000000      SURF                                    
     16     (1,2,6)               0.0000000      SURF                                    
     17     (1,2,7)               0.0000000      SURF                                    
     18     (1,2,8)               0.0000000      SURF                                    
     19     (1,2,9)               0.0000000      SURF                                    
     20     (1,2,10)              0.0000000      SURF                                    
     21     (1,3,1)               0.0000000      SURF                                    
     22     (1,3,2)               0.0000000      SURF                                    
     23     (1,3,3)               0.0000000      SURF                                    
     24     (1,3,4)               0.0000000      SURF                                    
     25     (1,3,5)               0.0000000      SURF                                    
     26     (1,3,6)               0.0000000      SURF                                    
     27     (1,3,7)               0.0000000      SURF                                    
     28     (1,3,8)               0.0000000      SURF                                    
     29     (1,3,9)               0.0000000      SURF                                    
     30     (1,3,10)              0.0000000      SURF                                    
     31     (1,4,1)               0.0000000      SURF                                    
     32     (1,4,2)               0.0000000      SURF                                    
     33     (1,4,3)               0.0000000      SURF                                    
     34     (1,4,4)               0.0000000      SURF                                    
     35     (1,4,5)               0.0000000      SURF                                    
     36     (1,4,6)               0.0000000      SURF                                    
     37     (1,4,7)               0.0000000      SURF                                    
     38     (1,4,8)               0.0000000      SURF                                    
     39     (1,4,9)               0.0000000      SURF                                    
     40     (1,4,10)              0.0000000      SURF                                    
     41     (1,5,1)               0.0000000      SURF                                    
     42     (1,5,2)               0.0000000      SURF                                    
     43     (1,5,3)               0.0000000      SURF                                    
     44     (1,5,4)               0.0000000      SURF                                    
     45     (1,5,5)               0.0000000      SURF                                    
     46     (1,5,6)               0.0000000      SURF                                    
     47     (1,5,7)               0.0000000      SURF                                    
     48     (1,5,8)               0.0000000      SURF                                    
     49     (1,5,9)               0.0000000      SURF                                    
     50     (1,5,10)              0.0000000      SURF                                    
     51     (1,6,1)               0.0000000      SURF                                    
     52     (1,6,2)               0.0000000      SURF                                    
     53     (1,6,3)               0.0000000      SURF                                    
     54     (1,6,4)               0.0000000      SURF                                    
     55     (1,6,5)               0.0000000      SURF                                    
     56     (1,6,6)               0.0000000      SURF                                    
     57     (1,6,7)              -8.14907253E-09 SURF                                    
     58     (1,6,8)               0.0000000      SURF                                    
     59     (1,6,9)               0.0000000      SURF                                    
     60     (1,6,10)              0.0000000      SURF                                    
     61     (1,7,1)               0.0000000      SURF                                    
     62     (1,7,2)               0.0000000      SURF                                    
     63     (1,7,3)               0.0000000      SURF                                    
     64     (1,7,4)               0.0000000      SURF                                    
     65     (1,7,5)               0.0000000      SURF                                    
     66     (1,7,6)               0.0000000      SURF                                    
     67     (1,7,7)               0.0000000      SURF                                    
     68     (1,7,8)               0.0000000      SURF                                    
     69     (1,7,9)               0.0000000      SURF                                    
     70     (1,7,10)              0.0000000      SURF                                    
     71     (1,8,1)               0.0000000      SURF                                    
     72     (1,8,2)               0.0000000      SURF                                    
     73     (1,8,3)               0.0000000      SURF                                    
     74     (1,8,4)               0.0000000      SURF                                    
     75     (1,8,5)               0.0000000      SURF                                    
     76     (1,8,6)               0.0000000      SURF                                    
     77     (1,8,7)               0.0000000      SURF                                    
     78     (1,8,8)               0.0000000      SURF                                    
     79     (1,8,9)               0.0000000      SURF                                    
     80     (1,8,10)              0.0000000      SURF                                    
     81     (1,9,1)               0.0000000      SURF                                    
     82     (1,9,2)               0.0000000      SURF                                    
     83     (1,9,3)               0.0000000      SURF                                    
     84     (1,9,4)               0.0000000      SURF                                    
     85     (1,9,5)               0.0000000      SURF                                    
     86     (1,9,6)               0.0000000      SURF                                    
     87     (1,9,7)               0.0000000      SURF                                    
     88     (1,9,8)               0.0000000      SURF                                    
     89     (1,9,9)               0.0000000      SURF                                    
     90     (1,9,10)              0.0000000      SURF                                    
     91     (1,10,1)              0.0000000      SURF                                    
     92     (1,10,2)              0.0000000      SURF                                    
     93     (1,10,3)              0.0000000      SURF                                    
     94     (1,10,4)              0.0000000      SURF                                    
     95     (1,10,5)              0.0000000      SURF                                    
     96     (1,10,6)              0.0000000      SURF                                    
     97     (1,10,7)             -3.94065864E-07 SURF                                    
     98     (1,10,8)              0.0000000      SURF                                    
     99     (1,10,9)              0.0000000      SURF                                    
    100     (1,10,10)             0.0000000      SURF                                    
    101     (1,11,1)              0.0000000      SURF                                    
    102     (1,11,2)              0.0000000      SURF                                    
    103     (1,11,3)              0.0000000      SURF                                    
    104     (1,11,4)              0.0000000      SURF                                    
    105     (1,11,5)              0.0000000      SURF                                    
    106     (1,11,6)              0.0000000      SURF                                    
    107     (1,11,7)              0.0000000      SURF                                    
    108     (1,11,8)              0.0000000      SURF                                    
    109     (1,11,9)              0.0000000      SURF                                    
    110     (1,11,10)             0.0000000      SURF                                    
    111     (1,12,1)              0.0000000      SURF                                    
    112     (1,12,2)              0.0000000      SURF                                    
    113     (1,12,3)              0.0000000      SURF                                    
    114     (1,12,4)              0.0000000      SURF                                    
    115     (1,12,5)              0.0000000      SURF                                    
    116     (1,12,6)              0.0000000      SURF                                    
    117     (1,12,7)              0.0000000      SURF                                    
    118     (1,12,8)              0.0000000      SURF                                    
    119     (1,12,9)              0.0000000      SURF                                    
    120     (1,12,10)             0.0000000      SURF                                    
    121     (1,13,1)              0.0000000      SURF                                    
    122     (1,13,2)              0.0000000      SURF                                    
    123     (1,13,3)              0.0000000      SURF                                    
    124     (1,13,4)              0.0000000      SURF                                    
    125     (1,13,5)              0.0000000      SURF                                    
    126     (1,13,6)              0.0000000      SURF                                    
    127     (1,13,7)              0.0000000      SURF                                    
    128     (1,13,8)              0.0000000      SURF                                    
    129     (1,13,9)              0.0000000      SURF                                    
    130     (1,13,10)             0.0000000      SURF                                    
    131     (1,14,1)              0.0000000      SURF                                    
    132     (1,14,2)              0.0000000      SURF                                    
    133     (1,14,3)              0.0000000      SURF                                    
    134     (1,14,4)              0.0000000      SURF                                    
    135     (1,14,5)              0.0000000      SURF                                    
    136     (1,14,6)              0.0000000      SURF                                    
    137     (1,14,7)              0.0000000      SURF                                    
    138     (1,14,8)              0.0000000      SURF                                    
    139     (1,14,9)              0.0000000      SURF                                    
    140     (1,14,10)             0.0000000      SURF                                    
    141     (1,15,1)              0.0000000      SURF                                    
    142     (1,15,2)              0.0000000      SURF                                    
    143     (1,15,3)              0.0000000      SURF                                    
    144     (1,15,4)              0.0000000      SURF                                    
    145     (1,15,5)              0.0000000      SURF                                    
    146     (1,15,6)              0.0000000      SURF                                    
    147     (1,15,7)              0.0000000      SURF                                    
    148     (1,15,8)              0.0000000      SURF                                    
    149     (1,15,9)              0.0000000      SURF                                    
    150     (1,15,10)             0.0000000      SURF                                    
 ----------------------------------------------------------------------------------------




 API PACKAGE (MAR) FLOW RATES   PERIOD      2   STEP       29
 -----------------------------------------------
   NUMBER   CELLID                    RATE      
 -----------------------------------------------
     1      (1,6,5)               32.763996     
     2      (1,6,6)               32.763996     
     3      (1,6,7)               32.763996     
     4      (1,10,5)              33.194610     
     5      (1,10,6)              33.194610     
     6      (1,10,7)              33.194610     
 -----------------------------------------------



1
  HEAD IN LAYER   1 AT END OF TIME STEP  29 IN STRESS PERIOD    2
  ---------------------------------------------------------------------------

            1           2           3           4           5           6           7           8           9          10
 ........................................................................................................................
   1   2.1601E-04  5.4981E-04  1.4319E-03  3.0405E-03  4.8984E-03  5.6665E-03  4.9007E-03  3.0512E-03  1.4757E-03  7.0857E-04
   2   6.2879E-04  1.6680E-03  4.5203E-03  9.9701E-03  1.6541E-02  1.9144E-02  1.6547E-02  9.9995E-03  4.6451E-03  2.1356E-03
   3   1.8707E-03  5.1761E-03  1.4642E-02  3.3777E-02  5.8279E-02  6.7171E-02  5.8296E-02  3.3860E-02  1.5005E-02  6.5823E-03
   4   4.5289E-03  1.3126E-02  3.9110E-02  9.6022E-02  0.1770      0.2007      0.1771      9.6213E-02  3.9966E-02  1.6564E-02
   5   8.0358E-03  2.4484E-02  7.8029E-02  0.2120      0.4522      0.4866      0.4523      0.2123      7.9507E-02  3.0636E-02
   6   8.3177E-03  2.6031E-02  8.9668E-02  0.2975      0.9999      0.9101       1.000      0.2979      9.1185E-02  3.2403E-02
   7   5.7758E-04 -3.6548E-03 -3.3260E-02 -0.1707     -0.6388      -1.892     -0.6387     -0.1706     -3.2986E-02 -3.4664E-03
   8  -5.6191E-03 -2.7255E-02 -0.1335     -0.5800      -2.288      -9.183      -2.289     -0.5801     -0.1342     -3.2002E-02
   9  -1.3185E-03 -7.7759E-03 -4.1613E-02 -0.1823     -0.6477      -1.900     -0.6477     -0.1823     -4.1749E-02 -8.9412E-03
  10   5.4461E-03  1.9895E-02  7.7833E-02  0.2839       1.000      0.9127       1.000      0.2841      7.8731E-02  2.4228E-02
  11   5.4592E-03  1.8767E-02  6.5954E-02  0.1935      0.4332      0.4666      0.4332      0.1936      6.6880E-02  2.3078E-02
  12   2.9376E-03  9.4933E-03  3.0939E-02  8.1681E-02  0.1580      0.1796      0.1580      8.1785E-02  3.1456E-02  1.1789E-02
  13   1.1332E-03  3.4720E-03  1.0690E-02  2.6425E-02  4.7732E-02  5.5220E-02  4.7740E-02  2.6468E-02  1.0896E-02  4.3480E-03
  14   3.5178E-04  1.0280E-03  3.0203E-03  7.1141E-03  1.2322E-02  1.4331E-02  1.2325E-02  7.1282E-03  3.0859E-03  1.2969E-03
  15   1.1019E-04  3.0733E-04  8.6420E-04  1.9523E-03  3.2740E-03  3.8091E-03  3.2749E-03  1.9570E-03  8.8534E-04  3.9057E-04

 HEAD WILL BE SAVED ON UNIT 1100 AT END OF TIME STEP   29, STRESS PERIOD    2


  VOLUME BUDGET FOR ENTIRE MODEL AT END OF TIME STEP   29, STRESS PERIOD   2
  ---------------------------------------------------------------------------------------------------

     CUMULATIVE VOLUME      L**3       RATES FOR THIS TIME STEP      L**3/T          PACKAGE NAME    
     ------------------                 ------------------------                     ----------------

           IN:                                      IN:
           ---                                      ---
              STO-SS =          17.6675                STO-SS =       3.0048E-02     STORAGE                          
              STO-SY =       45743.3804                STO-SY =          67.6282     STORAGE                          
                 WEL =           0.0000                   WEL =           0.0000     WEL-1                            
                 DRN =           0.0000                   DRN =           0.0000     DRN-0                            
                 API =       58026.3388                   API =         197.8758     MAR                              
                 CHD =       2.0279E-08                   CHD =           0.0000     CHD_0                            

            TOTAL IN =      103787.3866              TOTAL IN =         265.5341

          OUT:                                     OUT:
          ----                                     ----
              STO-SS =          14.4811                STO-SS =       2.0218E-02     STORAGE                          
              STO-SY =       28151.7259                STO-SY =          39.8537     STORAGE                          
                 WEL =       75621.1795                   WEL =         225.6602     WEL-1                            
                 DRN =       8.6883E-05                   DRN =       4.0221E-07     DRN-0                            
                 API =           0.0000                   API =           0.0000     MAR                              
                 CHD =       2.0705E-08                   CHD =           0.0000     CHD_0                            

           TOTAL OUT =      103787.3866             TOTAL OUT =         265.5341

            IN - OUT =      -6.6304E-07              IN - OUT =      -3.0902E-09

 PERCENT DISCREPANCY =          -0.00     PERCENT DISCREPANCY =          -0.00




         TIME SUMMARY AT END OF TIME STEP   29 IN STRESS PERIOD    2
                    SECONDS     MINUTES      HOURS       DAYS        YEARS
                    -----------------------------------------------------------
   TIME STEP LENGTH 8.64000E+05  14400.      240.00      10.000     2.73785E-02
 STRESS PERIOD TIME 2.50560E+07 4.17600E+05  6960.0      290.00     0.79398    
         TOTAL TIME 2.51424E+07 4.19040E+05  6984.0      291.00     0.79671    


end timestep


start timestep kper="2" kstp="30" mode="normal"

 UBDSV1 SAVING           STO-SS ON UNIT   1099 AT TIME STEP     30, STRESS PERIOD      2
 UBDSV1 SAVING           STO-SY ON UNIT   1099 AT TIME STEP     30, STRESS PERIOD      2
 UBDSV1 SAVING     FLOW-JA-FACE ON UNIT   1099 AT TIME STEP     30, STRESS PERIOD      2
 UBDSV06 SAVING       DATA-SPDIS IN MODEL GWF              PACKAGE NPF             CONNECTED TO MODEL GWF              PACKAGE NPF              ON UNIT   1099 AT TIME STEP     30, STRESS PERIOD      2
 UBDSV06 SAVING              WEL IN MODEL GWF              PACKAGE GWF             CONNECTED TO MODEL GWF              PACKAGE WEL-1            ON UNIT   1099 AT TIME STEP     30, STRESS PERIOD      2
 UBDSV06 SAVING              DRN IN MODEL GWF              PACKAGE GWF             CONNECTED TO MODEL GWF              PACKAGE DRN-0            ON UNIT   1099 AT TIME STEP     30, STRESS PERIOD      2
 UBDSV06 SAVING              API IN MODEL GWF              PACKAGE GWF             CONNECTED TO MODEL GWF              PACKAGE MAR              ON UNIT   1099 AT TIME STEP     30, STRESS PERIOD      2
 UBDSV06 SAVING              CHD IN MODEL GWF              PACKAGE GWF             CONNECTED TO MODEL GWF              PACKAGE CHD_0            ON UNIT   1099 AT TIME STEP     30, STRESS PERIOD      2

    CALCULATED INTERCELL FLOW FOR PERIOD 2 STEP 30
(1,1,1): (1,1,2) 3.842235E-03 (1,2,1) 4.740288E-03
(1,1,2): (1,1,1) -3.842235E-03 (1,1,3) 9.978957E-03 (1,2,2) 1.253137E-02
(1,1,3): (1,1,2) -9.978957E-03 (1,1,4) 1.787092E-02 (1,2,3) 3.392106E-02
(1,1,4): (1,1,3) -1.787092E-02 (1,1,5) 2.035111E-02 (1,2,4) 7.491209E-02
(1,1,5): (1,1,4) -2.035111E-02 (1,1,6) 8.410045E-03 (1,2,5) 0.124571
(1,1,6): (1,1,5) -8.410045E-03 (1,1,7) -8.381436E-03 (1,2,6) 0.143916
(1,1,7): (1,1,6) 8.381436E-03 (1,1,8) -2.024705E-02 (1,2,7) 0.124618
(1,1,8): (1,1,7) 2.024705E-02 (1,1,9) -1.747001E-02 (1,2,8) 7.513642E-02
(1,1,9): (1,1,8) 1.747001E-02 (1,1,10) -8.624260E-03 (1,2,9) 3.486581E-02
(1,1,10): (1,1,9) 8.624260E-03 (1,2,10) 1.605299E-02
(1,2,1): (1,1,1) -4.740288E-03 (1,2,2) 1.163325E-02 (1,3,1) 1.393907E-02
(1,2,2): (1,1,2) -1.253137E-02 (1,2,1) -1.163325E-02 (1,2,3) 3.136810E-02 (1,3,2) 3.841058E-02
(1,2,3): (1,1,3) -3.392106E-02 (1,2,2) -3.136810E-02 (1,2,4) 5.885539E-02 (1,3,3) 0.108671
(1,2,4): (1,1,4) -7.491209E-02 (1,2,3) -5.885539E-02 (1,2,5) 6.998340E-02 (1,3,4) 0.251930
(1,2,5): (1,1,5) -0.124571 (1,2,4) -6.998340E-02 (1,2,6) 2.773267E-02 (1,3,5) 0.437980
(1,2,6): (1,1,6) -0.143916 (1,2,5) -2.773267E-02 (1,2,7) -2.765748E-02 (1,3,6) 0.503361
(1,2,7): (1,1,7) -0.124618 (1,2,6) 2.765748E-02 (1,2,8) -6.970156E-02 (1,3,7) 0.438109
(1,2,8): (1,1,8) -7.513642E-02 (1,2,7) 6.970156E-02 (1,2,9) -5.773363E-02 (1,3,8) 0.252561
(1,2,9): (1,1,9) -3.486581E-02 (1,2,8) 5.773363E-02 (1,2,10) -2.743568E-02 (1,3,9) 0.111394
(1,2,10): (1,1,10) -1.605299E-02 (1,2,9) 2.743568E-02 (1,3,10) 4.887932E-02
(1,3,1): (1,2,1) -1.393907E-02 (1,3,2) 3.610420E-02 (1,4,1) 2.901922E-02
(1,3,2): (1,2,2) -3.841058E-02 (1,3,1) -3.610420E-02 (1,3,3) 0.101624 (1,4,2) 8.469828E-02
(1,3,3): (1,2,3) -0.108671 (1,3,2) -0.101624 (1,3,4) 0.202043 (1,4,3) 0.256224
(1,3,4): (1,2,4) -0.251930 (1,3,3) -0.202043 (1,3,5) 0.255700 (1,4,4) 0.645749
(1,3,5): (1,2,5) -0.437980 (1,3,4) -0.255700 (1,3,6) 9.285098E-02 (1,4,5) 1.23061
(1,3,6): (1,2,6) -0.503361 (1,3,5) -9.285098E-02 (1,3,7) -9.264672E-02 (1,4,6) 1.38441
(1,3,7): (1,2,7) -0.438109 (1,3,6) 9.264672E-02 (1,3,8) -0.254915 (1,4,7) 1.23086
(1,3,8): (1,2,8) -0.252561 (1,3,7) 0.254915 (1,3,9) -0.198825 (1,4,8) 0.646996
(1,3,9): (1,2,9) -0.111394 (1,3,8) 0.198825 (1,3,10) -8.993732E-02 (1,4,9) 0.261743
(1,3,10): (1,2,10) -4.887932E-02 (1,3,9) 8.993732E-02 (1,4,10) 0.106785
(1,4,1): (1,3,1) -2.901922E-02 (1,4,2) 9.178720E-02 (1,5,1) 3.690019E-02
(1,4,2): (1,3,2) -8.469828E-02 (1,4,1) -9.178720E-02 (1,4,3) 0.273178 (1,5,2) 0.116846
(1,4,3): (1,3,3) -0.256224 (1,4,2) -0.273178 (1,4,4) 0.591361 (1,5,3) 0.395901
(1,4,4): (1,3,4) -0.645749 (1,4,3) -0.591361 (1,4,5) 0.838369 (1,5,4) 1.18448
(1,4,5): (1,3,5) -1.23061 (1,4,4) -0.838369 (1,4,6) 0.244998 (1,5,5) 2.87155
(1,4,6): (1,3,6) -1.38441 (1,4,5) -0.244998 (1,4,7) -0.244542 (1,5,6) 2.98576
(1,4,7): (1,3,7) -1.23086 (1,4,6) 0.244542 (1,4,8) -0.836583 (1,5,7) 2.87186
(1,4,8): (1,3,8) -0.646996 (1,4,7) 0.836583 (1,4,9) -0.583840 (1,5,8) 1.18597
(1,4,9): (1,3,9) -0.261743 (1,4,8) 0.583840 (1,4,10) -0.244869 (1,5,9) 0.402669
(1,4,10): (1,3,10) -0.106785 (1,4,9) 0.244869 (1,5,10) 0.145341
(1,5,1): (1,4,1) -3.690019E-02 (1,5,2) 0.171776 (1,6,1) 7.889833E-04
(1,5,2): (1,4,2) -0.116846 (1,5,1) -0.171776 (1,5,3) 0.552663 (1,6,2) 8.707515E-03
(1,5,3): (1,4,3) -0.395901 (1,5,2) -0.552663 (1,5,4) 1.38142 (1,6,3) 9.592429E-02
(1,5,4): (1,4,4) -1.18448 (1,5,3) -1.38142 (1,5,5) 2.52010 (1,6,4) 0.832506
(1,5,5): (1,4,5) -2.87155 (1,5,4) -2.52010 (1,5,6) 0.356706 (1,6,5) 5.97335
(1,5,6): (1,4,6) -2.98576 (1,5,5) -0.356706 (1,5,7) -0.355947 (1,6,6) 4.55288
(1,5,7): (1,4,7) -2.87186 (1,5,6) 0.355947 (1,5,8) -2.51709 (1,6,7) 5.97338
(1,5,8): (1,4,8) -1.18597 (1,5,7) 2.51709 (1,5,9) -1.36850 (1,6,8) 0.832526
(1,5,9): (1,4,9) -0.402669 (1,5,8) 1.36850 (1,5,10) -0.502449 (1,6,9) 9.598465E-02
(1,5,10): (1,4,10) -0.145341 (1,5,9) 0.502449 (1,6,10) 9.297148E-03
(1,6,1): (1,5,1) -7.889833E-04 (1,6,2) 0.179708 (1,7,1) -8.389450E-02
(1,6,2): (1,5,2) -8.707515E-03 (1,6,1) -0.179708 (1,6,3) 0.640346 (1,7,2) -0.314980
(1,6,3): (1,5,3) -9.592429E-02 (1,6,2) -0.640346 (1,6,4) 2.12697 (1,7,3) -1.28865
(1,6,4): (1,5,4) -0.832506 (1,6,3) -2.12697 (1,6,5) 7.73497 (1,7,4) -4.93599
(1,6,5): (1,5,5) -5.97335 (1,6,4) -7.73497 (1,6,6) -1.00821 (1,7,5) -18.2592
(1,6,6): (1,5,6) -4.55288 (1,6,5) 1.00821 (1,6,7) 1.00900 (1,7,6) -30.7944
(1,6,7): (1,5,7) -5.97338 (1,6,6) -1.00900 (1,6,8) -7.73184 (1,7,7) -18.2598
(1,6,8): (1,5,8) -0.832526 (1,6,7) 7.73184 (1,6,9) -2.11392 (1,7,8) -4.93880
(1,6,9): (1,5,9) -9.598465E-02 (1,6,8) 2.11392 (1,6,10) -0.589556 (1,7,9) -1.30266
(1,6,10): (1,5,10) -9.297148E-03 (1,6,9) 0.589556 (1,7,10) -0.382014
(1,7,1): (1,6,1) 8.389450E-02 (1,7,2) -5.109250E-02 (1,8,1) -6.622839E-02
(1,7,2): (1,6,2) 0.314980 (1,7,1) 5.109250E-02 (1,7,3) -0.328218 (1,8,2) -0.246702
(1,7,3): (1,6,3) 1.28865 (1,7,2) 0.328218 (1,7,4) -1.44549 (1,8,3) -1.02688
(1,7,4): (1,6,4) 4.93599 (1,7,3) 1.44549 (1,7,5) -4.68664 (1,8,4) -4.07831
(1,7,5): (1,6,5) 18.2592 (1,7,4) 4.68664 (1,7,6) -11.7193 (1,8,5) -15.4787
(1,7,6): (1,6,6) 30.7944 (1,7,5) 11.7193 (1,7,7) 11.7196 (1,8,6) -58.8065
(1,7,7): (1,6,7) 18.2598 (1,7,6) -11.7196 (1,7,8) 4.68744 (1,8,7) -15.4791
(1,7,8): (1,6,8) 4.93880 (1,7,7) -4.68744 (1,7,9) 1.44715 (1,8,8) -4.08055
(1,7,9): (1,6,9) 1.30266 (1,7,8) -1.44715 (1,7,10) 0.325725 (1,8,9) -1.03799
(1,7,10): (1,6,10) 0.382014 (1,7,9) -0.325725 (1,8,10) -0.299143
(1,8,1): (1,7,1) 6.622839E-02 (1,8,2) -0.231539 (1,9,1) 4.665546E-02
(1,8,2): (1,7,2) 0.246702 (1,8,1) 0.231539 (1,8,3) -1.10903 (1,9,2) 0.205563
(1,8,3): (1,7,3) 1.02688 (1,8,2) 1.10903 (1,8,4) -4.51005 (1,9,3) 0.945762
(1,8,4): (1,7,4) 4.07831 (1,8,3) 4.51005 (1,8,5) -16.1640 (1,9,4) 3.96686
(1,8,5): (1,7,5) 15.4787 (1,8,4) 16.1640 (1,8,6) -52.7867 (1,9,5) 15.3895
(1,8,6): (1,7,6) 58.8065 (1,8,5) 52.7867 (1,8,7) 52.7865 (1,9,6) 58.6968
(1,8,7): (1,7,7) 15.4791 (1,8,6) -52.7865 (1,8,8) 16.1628 (1,9,7) 15.3897
(1,8,8): (1,7,8) 4.08055 (1,8,7) -16.1628 (1,8,9) 4.50251 (1,9,8) 3.96793
(1,8,9): (1,7,9) 1.03799 (1,8,8) -4.50251 (1,8,10) 1.06477 (1,9,9) 0.952525
(1,8,10): (1,7,10) 0.299143 (1,8,9) -1.06477 (1,9,10) 0.244160
(1,9,1): (1,8,1) -4.665546E-02 (1,9,2) -7.258958E-02 (1,10,1) 7.376173E-02
(1,9,2): (1,8,2) -0.205563 (1,9,1) 7.258958E-02 (1,9,3) -0.367628 (1,10,2) 0.294506
(1,9,3): (1,8,3) -0.945762 (1,9,2) 0.367628 (1,9,4) -1.47257 (1,10,3) 1.25270
(1,9,4): (1,8,4) -3.96686 (1,9,3) 1.47257 (1,9,5) -4.65408 (1,10,4) 4.90908
(1,9,5): (1,8,5) -15.3895 (1,9,4) 4.65408 (1,9,6) -11.7001 (1,10,5) 18.3490
(1,9,6): (1,8,6) -58.6968 (1,9,5) 11.7001 (1,9,7) 11.7001 (1,10,6) 30.9084
(1,9,7): (1,8,7) -15.3897 (1,9,6) -11.7001 (1,9,8) 4.65395 (1,10,7) 18.3493
(1,9,8): (1,8,8) -3.96793 (1,9,7) -4.65395 (1,9,9) 1.47101 (1,10,8) 4.91123
(1,9,9): (1,8,9) -0.952525 (1,9,8) -1.47101 (1,9,10) 0.355607 (1,10,9) 1.26438
(1,9,10): (1,8,10) -0.244160 (1,9,9) -0.355607 (1,10,10) 0.354378
(1,10,1): (1,9,1) -7.376173E-02 (1,10,2) 0.147885 (1,11,1) 1.922107E-03
(1,10,2): (1,9,2) -0.294506 (1,10,1) -0.147885 (1,10,3) 0.585636 (1,11,2) -5.248337E-03
(1,10,3): (1,9,3) -1.25270 (1,10,2) -0.585636 (1,10,4) 2.10958 (1,11,3) -9.970995E-02
(1,10,4): (1,9,4) -4.90908 (1,10,3) -2.10958 (1,10,5) 7.87751 (1,11,4) -0.881489
(1,10,5): (1,9,5) -18.3490 (1,10,4) -7.87751 (1,10,6) -0.979735 (1,11,5) -6.17222
(1,10,6): (1,9,6) -30.9084 (1,10,5) 0.979735 (1,10,7) 0.980115 (1,11,6) -4.78785
(1,10,7): (1,9,7) -18.3493 (1,10,6) -0.980115 (1,10,8) -7.87581 (1,11,7) -6.17221
(1,10,8): (1,9,8) -4.91123 (1,10,7) 7.87581 (1,10,9) -2.10146 (1,11,8) -0.881331
(1,10,9): (1,9,9) -1.26438 (1,10,8) 2.10146 (1,10,10) -0.549272 (1,11,9) -9.911899E-02
(1,10,10): (1,9,10) -0.354378 (1,10,9) 0.549272 (1,11,10) -4.050570E-03
(1,11,1): (1,10,1) -1.922107E-03 (1,11,2) 0.140705 (1,12,1) -2.692509E-02
(1,11,2): (1,10,2) 5.248337E-03 (1,11,1) -0.140705 (1,11,3) 0.490722 (1,12,2) -9.645484E-02
(1,11,3): (1,10,3) 9.970995E-02 (1,11,2) -0.490722 (1,11,4) 1.31875 (1,12,3) -0.358691
(1,11,4): (1,10,4) 0.881489 (1,11,3) -1.31875 (1,11,5) 2.51308 (1,12,4) -1.14510
(1,11,5): (1,10,5) 6.17222 (1,11,4) -2.51308 (1,11,6) 0.348017 (1,12,5) -2.87119
(1,11,6): (1,10,6) 4.78785 (1,11,5) -0.348017 (1,11,7) -0.347623 (1,12,6) -2.99756
(1,11,7): (1,10,7) 6.17221 (1,11,6) 0.347623 (1,11,8) -2.51131 (1,12,7) -2.87136
(1,11,8): (1,10,8) 0.881331 (1,11,7) 2.51131 (1,11,9) -1.31025 (1,12,8) -1.14598
(1,11,9): (1,10,9) 9.911899E-02 (1,11,8) 1.31025 (1,11,10) -0.453783 (1,12,9) -0.363219
(1,11,10): (1,10,10) 4.050570E-03 (1,11,9) 0.453783 (1,12,10) -0.117914
(1,12,1): (1,11,1) 2.692509E-02 (1,12,2) 7.114414E-02 (1,13,1) -2.009035E-02
(1,12,2): (1,11,2) 9.645484E-02 (1,12,1) -7.114414E-02 (1,12,3) 0.228145 (1,13,2) -6.516533E-02
(1,12,3): (1,11,3) 0.358691 (1,12,2) -0.228145 (1,12,4) 0.531031 (1,13,3) -0.214535
(1,12,4): (1,11,4) 1.14510 (1,12,3) -0.531031 (1,12,5) 0.792571 (1,13,4) -0.577581
(1,12,5): (1,11,5) 2.87119 (1,12,4) -0.792571 (1,12,6) 0.224477 (1,13,5) -1.14786
(1,12,6): (1,11,6) 2.99756 (1,12,5) -0.224477 (1,12,7) -0.224245 (1,13,6) -1.29468
(1,12,7): (1,11,7) 2.87136 (1,12,6) 0.224245 (1,12,8) -0.791550 (1,13,7) -1.14799
(1,12,8): (1,11,8) 1.14598 (1,12,7) 0.791550 (1,12,9) -0.526257 (1,13,8) -0.578307
(1,12,9): (1,11,9) 0.363219 (1,12,8) 0.526257 (1,12,10) -0.208259 (1,13,9) -0.218093
(1,12,10): (1,11,10) 0.117914 (1,12,9) 0.208259 (1,13,10) -8.089121E-02
(1,13,1): (1,12,1) 2.009035E-02 (1,13,2) 2.606648E-02 (1,14,1) -8.979284E-03
(1,13,2): (1,12,2) 6.516533E-02 (1,13,1) -2.606648E-02 (1,13,3) 7.875532E-02 (1,14,2) -2.729602E-02
(1,13,3): (1,12,3) 0.214535 (1,13,2) -7.875532E-02 (1,13,4) 0.168150 (1,14,3) -8.370035E-02
(1,13,4): (1,12,4) 0.577581 (1,13,3) -0.168150 (1,13,5) 0.224241 (1,14,4) -0.206959
(1,13,5): (1,12,5) 1.14786 (1,13,4) -0.224241 (1,13,6) 7.914605E-02 (1,14,5) -0.375241
(1,13,6): (1,12,6) 1.29468 (1,13,5) -7.914605E-02 (1,13,7) -7.904671E-02 (1,14,6) -0.432825
(1,13,7): (1,12,7) 1.14799 (1,13,6) 7.904671E-02 (1,13,8) -0.223815 (1,14,7) -0.375306
(1,13,8): (1,12,8) 0.578307 (1,13,7) 0.223815 (1,13,9) -0.166227 (1,14,8) -0.207307
(1,13,9): (1,12,9) 0.218093 (1,13,8) 0.166227 (1,13,10) -7.107041E-02 (1,14,9) -8.534483E-02
(1,13,10): (1,12,10) 8.089121E-02 (1,13,9) 7.107041E-02 (1,14,10) -3.422602E-02
(1,14,1): (1,13,1) 8.979284E-03 (1,14,2) 7.749967E-03 (1,15,1) -2.850583E-03
(1,14,2): (1,13,2) 2.729602E-02 (1,14,1) -7.749967E-03 (1,14,3) 2.235377E-02 (1,15,2) -8.268925E-03
(1,14,3): (1,13,3) 8.370035E-02 (1,14,2) -2.235377E-02 (1,14,4) 4.493878E-02 (1,15,3) -2.417064E-02
(1,14,4): (1,13,4) 0.206959 (1,14,3) -4.493878E-02 (1,14,5) 5.621016E-02 (1,15,4) -5.677429E-02
(1,14,5): (1,13,5) 0.375241 (1,14,4) -5.621016E-02 (1,14,6) 2.176168E-02 (1,15,5) -9.826389E-02
(1,14,6): (1,13,6) 0.432825 (1,14,5) -2.176168E-02 (1,14,7) -2.172730E-02 (1,15,6) -0.114056
(1,14,7): (1,13,7) 0.375306 (1,14,6) 2.172730E-02 (1,14,8) -5.606730E-02 (1,15,7) -9.828615E-02
(1,14,8): (1,13,8) 0.207307 (1,14,7) 5.606730E-02 (1,14,9) -4.431490E-02 (1,15,8) -5.689070E-02
(1,14,9): (1,13,9) 8.534483E-02 (1,14,8) 4.431490E-02 (1,14,10) -1.995887E-02 (1,15,9) -2.470594E-02
(1,14,10): (1,13,10) 3.422602E-02 (1,14,9) 1.995887E-02 (1,15,10) -1.044429E-02
(1,15,1): (1,14,1) 2.850583E-03 (1,15,2) 2.331654E-03
(1,15,2): (1,14,2) 8.268925E-03 (1,15,1) -2.331654E-03 (1,15,3) 6.452343E-03
(1,15,3): (1,14,3) 2.417064E-02 (1,15,2) -6.452343E-03 (1,15,4) 1.233898E-02
(1,15,4): (1,14,4) 5.677429E-02 (1,15,3) -1.233898E-02 (1,15,5) 1.473794E-02
(1,15,5): (1,14,5) 9.826389E-02 (1,15,4) -1.473794E-02 (1,15,6) 5.983689E-03
(1,15,6): (1,14,6) 0.114056 (1,15,5) -5.983689E-03 (1,15,7) -5.971549E-03
(1,15,7): (1,14,7) 9.828615E-02 (1,15,6) 5.971549E-03 (1,15,8) -1.468927E-02
(1,15,8): (1,14,8) 5.689070E-02 (1,15,7) 1.468927E-02 (1,15,9) -1.213419E-02
(1,15,9): (1,14,9) 2.470594E-02 (1,15,8) 1.213419E-02 (1,15,10) -5.697905E-03
(1,15,10): (1,14,10) 1.044429E-02 (1,15,9) 5.697905E-03

 WEL PACKAGE (WEL-1) FLOW RATES   PERIOD      2   STEP       30
 ----------------------------------------------------------------------------------------
   NUMBER   CELLID                    RATE       NAME                                    
 ----------------------------------------------------------------------------------------
     1      (1,8,6)              -224.14646      WEL                                     
 ----------------------------------------------------------------------------------------




 DRN PACKAGE (DRN-0) FLOW RATES   PERIOD      2   STEP       30
 ----------------------------------------------------------------------------------------
   NUMBER   CELLID                    RATE       NAME                                    
 ----------------------------------------------------------------------------------------
     1      (1,1,1)               0.0000000      SURF                                    
     2      (1,1,2)               0.0000000      SURF                                    
     3      (1,1,3)               0.0000000      SURF                                    
     4      (1,1,4)               0.0000000      SURF                                    
     5      (1,1,5)               0.0000000      SURF                                    
     6      (1,1,6)               0.0000000      SURF                                    
     7      (1,1,7)               0.0000000      SURF                                    
     8      (1,1,8)               0.0000000      SURF                                    
     9      (1,1,9)               0.0000000      SURF                                    
     10     (1,1,10)              0.0000000      SURF                                    
     11     (1,2,1)               0.0000000      SURF                                    
     12     (1,2,2)               0.0000000      SURF                                    
     13     (1,2,3)               0.0000000      SURF                                    
     14     (1,2,4)               0.0000000      SURF                                    
     15     (1,2,5)               0.0000000      SURF                                    
     16     (1,2,6)               0.0000000      SURF                                    
     17     (1,2,7)               0.0000000      SURF                                    
     18     (1,2,8)               0.0000000      SURF                                    
     19     (1,2,9)               0.0000000      SURF                                    
     20     (1,2,10)              0.0000000      SURF                                    
     21     (1,3,1)               0.0000000      SURF                                    
     22     (1,3,2)               0.0000000      SURF                                    
     23     (1,3,3)               0.0000000      SURF                                    
     24     (1,3,4)               0.0000000      SURF                                    
     25     (1,3,5)               0.0000000      SURF                                    
     26     (1,3,6)               0.0000000      SURF                                    
     27     (1,3,7)               0.0000000      SURF                                    
     28     (1,3,8)               0.0000000      SURF                                    
     29     (1,3,9)               0.0000000      SURF                                    
     30     (1,3,10)              0.0000000      SURF                                    
     31     (1,4,1)               0.0000000      SURF                                    
     32     (1,4,2)               0.0000000      SURF                                    
     33     (1,4,3)               0.0000000      SURF                                    
     34     (1,4,4)               0.0000000      SURF                                    
     35     (1,4,5)               0.0000000      SURF                                    
     36     (1,4,6)               0.0000000      SURF                                    
     37     (1,4,7)               0.0000000      SURF                                    
     38     (1,4,8)               0.0000000      SURF                                    
     39     (1,4,9)               0.0000000      SURF                                    
     40     (1,4,10)              0.0000000      SURF                                    
     41     (1,5,1)               0.0000000      SURF                                    
     42     (1,5,2)               0.0000000      SURF                                    
     43     (1,5,3)               0.0000000      SURF                                    
     44     (1,5,4)               0.0000000      SURF                                    
     45     (1,5,5)               0.0000000      SURF                                    
     46     (1,5,6)               0.0000000      SURF                                    
     47     (1,5,7)               0.0000000      SURF                                    
     48     (1,5,8)               0.0000000      SURF                                    
     49     (1,5,9)               0.0000000      SURF                                    
     50     (1,5,10)              0.0000000      SURF                                    
     51     (1,6,1)               0.0000000      SURF                                    
     52     (1,6,2)               0.0000000      SURF                                    
     53     (1,6,3)               0.0000000      SURF                                    
     54     (1,6,4)               0.0000000      SURF                                    
     55     (1,6,5)               0.0000000      SURF                                    
     56     (1,6,6)               0.0000000      SURF                                    
     57     (1,6,7)              -8.28003976E-09 SURF                                    
     58     (1,6,8)               0.0000000      SURF                                    
     59     (1,6,9)               0.0000000      SURF                                    
     60     (1,6,10)              0.0000000      SURF                                    
     61     (1,7,1)               0.0000000      SURF                                    
     62     (1,7,2)               0.0000000      SURF                                    
     63     (1,7,3)               0.0000000      SURF                                    
     64     (1,7,4)               0.0000000      SURF                                    
     65     (1,7,5)               0.0000000      SURF                                    
     66     (1,7,6)               0.0000000      SURF                                    
     67     (1,7,7)               0.0000000      SURF                                    
     68     (1,7,8)               0.0000000      SURF                                    
     69     (1,7,9)               0.0000000      SURF                                    
     70     (1,7,10)              0.0000000      SURF                                    
     71     (1,8,1)               0.0000000      SURF                                    
     72     (1,8,2)               0.0000000      SURF                                    
     73     (1,8,3)               0.0000000      SURF                                    
     74     (1,8,4)               0.0000000      SURF                                    
     75     (1,8,5)               0.0000000      SURF                                    
     76     (1,8,6)               0.0000000      SURF                                    
     77     (1,8,7)               0.0000000      SURF                                    
     78     (1,8,8)               0.0000000      SURF                                    
     79     (1,8,9)               0.0000000      SURF                                    
     80     (1,8,10)              0.0000000      SURF                                    
     81     (1,9,1)               0.0000000      SURF                                    
     82     (1,9,2)               0.0000000      SURF                                    
     83     (1,9,3)               0.0000000      SURF                                    
     84     (1,9,4)               0.0000000      SURF                                    
     85     (1,9,5)               0.0000000      SURF                                    
     86     (1,9,6)               0.0000000      SURF                                    
     87     (1,9,7)               0.0000000      SURF                                    
     88     (1,9,8)               0.0000000      SURF                                    
     89     (1,9,9)               0.0000000      SURF                                    
     90     (1,9,10)              0.0000000      SURF                                    
     91     (1,10,1)              0.0000000      SURF                                    
     92     (1,10,2)              0.0000000      SURF                                    
     93     (1,10,3)              0.0000000      SURF                                    
     94     (1,10,4)              0.0000000      SURF                                    
     95     (1,10,5)              0.0000000      SURF                                    
     96     (1,10,6)              0.0000000      SURF                                    
     97     (1,10,7)             -3.92712536E-07 SURF                                    
     98     (1,10,8)              0.0000000      SURF                                    
     99     (1,10,9)              0.0000000      SURF                                    
    100     (1,10,10)             0.0000000      SURF                                    
    101     (1,11,1)              0.0000000      SURF                                    
    102     (1,11,2)              0.0000000      SURF                                    
    103     (1,11,3)              0.0000000      SURF                                    
    104     (1,11,4)              0.0000000      SURF                                    
    105     (1,11,5)              0.0000000      SURF                                    
    106     (1,11,6)              0.0000000      SURF                                    
    107     (1,11,7)              0.0000000      SURF                                    
    108     (1,11,8)              0.0000000      SURF                                    
    109     (1,11,9)              0.0000000      SURF                                    
    110     (1,11,10)             0.0000000      SURF                                    
    111     (1,12,1)              0.0000000      SURF                                    
    112     (1,12,2)              0.0000000      SURF                                    
    113     (1,12,3)              0.0000000      SURF                                    
    114     (1,12,4)              0.0000000      SURF                                    
    115     (1,12,5)              0.0000000      SURF                                    
    116     (1,12,6)              0.0000000      SURF                                    
    117     (1,12,7)              0.0000000      SURF                                    
    118     (1,12,8)              0.0000000      SURF                                    
    119     (1,12,9)              0.0000000      SURF                                    
    120     (1,12,10)             0.0000000      SURF                                    
    121     (1,13,1)              0.0000000      SURF                                    
    122     (1,13,2)              0.0000000      SURF                                    
    123     (1,13,3)              0.0000000      SURF                                    
    124     (1,13,4)              0.0000000      SURF                                    
    125     (1,13,5)              0.0000000      SURF                                    
    126     (1,13,6)              0.0000000      SURF                                    
    127     (1,13,7)              0.0000000      SURF                                    
    128     (1,13,8)              0.0000000      SURF                                    
    129     (1,13,9)              0.0000000      SURF                                    
    130     (1,13,10)             0.0000000      SURF                                    
    131     (1,14,1)              0.0000000      SURF                                    
    132     (1,14,2)              0.0000000      SURF                                    
    133     (1,14,3)              0.0000000      SURF                                    
    134     (1,14,4)              0.0000000      SURF                                    
    135     (1,14,5)              0.0000000      SURF                                    
    136     (1,14,6)              0.0000000      SURF                                    
    137     (1,14,7)              0.0000000      SURF                                    
    138     (1,14,8)              0.0000000      SURF                                    
    139     (1,14,9)              0.0000000      SURF                                    
    140     (1,14,10)             0.0000000      SURF                                    
    141     (1,15,1)              0.0000000      SURF                                    
    142     (1,15,2)              0.0000000      SURF                                    
    143     (1,15,3)              0.0000000      SURF                                    
    144     (1,15,4)              0.0000000      SURF                                    
    145     (1,15,5)              0.0000000      SURF                                    
    146     (1,15,6)              0.0000000      SURF                                    
    147     (1,15,7)              0.0000000      SURF                                    
    148     (1,15,8)              0.0000000      SURF                                    
    149     (1,15,9)              0.0000000      SURF                                    
    150     (1,15,10)             0.0000000      SURF                                    
 ----------------------------------------------------------------------------------------




 API PACKAGE (MAR) FLOW RATES   PERIOD      2   STEP       30
 -----------------------------------------------
   NUMBER   CELLID                    RATE      
 -----------------------------------------------
     1      (1,6,5)               32.974032     
     2      (1,6,6)               32.974032     
     3      (1,6,7)               32.974032     
     4      (1,10,5)              33.377483     
     5      (1,10,6)              33.377483     
     6      (1,10,7)              33.377483     
 -----------------------------------------------



1
  HEAD IN LAYER   1 AT END OF TIME STEP  30 IN STRESS PERIOD    2
  ---------------------------------------------------------------------------

            1           2           3           4           5           6           7           8           9          10
 ........................................................................................................................
   1   2.5891E-04  6.4310E-04  1.6408E-03  3.4273E-03  5.4613E-03  6.3018E-03  5.4642E-03  3.4406E-03  1.6942E-03  8.3190E-04
   2   7.3290E-04  1.8960E-03  5.0312E-03  1.0910E-02  1.7896E-02  2.0664E-02  1.7904E-02  1.0946E-02  5.1790E-03  2.4368E-03
   3   2.1265E-03  5.7349E-03  1.5881E-02  3.6013E-02  6.1427E-02  7.0647E-02  6.1447E-02  3.6111E-02  1.6300E-02  7.3212E-03
   4   5.0270E-03  1.4193E-02  4.1398E-02  9.9949E-02  0.1823      0.2063      0.1823      0.1002      4.2364E-02  1.7981E-02
   5   8.7138E-03  2.5847E-02  8.0671E-02  0.2159      0.4569      0.4909      0.4570      0.2163      8.2302E-02  3.2468E-02
   6   8.7926E-03  2.6716E-02  9.0178E-02  0.2967      0.9999      0.9083       1.000      0.2971      9.1813E-02  3.3394E-02
   7   4.1053E-04 -4.6985E-03 -3.7536E-02 -0.1826     -0.6600      -1.915     -0.6600     -0.1825     -3.7268E-02 -4.6801E-03
   8  -6.2120E-03 -2.9380E-02 -0.1406     -0.5980      -2.317      -9.188      -2.317     -0.5982     -0.1415     -3.4608E-02
   9  -1.5458E-03 -8.8058E-03 -4.5601E-02 -0.1935     -0.6681      -1.922     -0.6681     -0.1935     -4.5764E-02 -1.0168E-02
  10   5.8261E-03  2.0584E-02  7.8691E-02  0.2838       1.000      0.9109       1.000      0.2840      7.9674E-02  2.5181E-02
  11   6.0182E-03  2.0060E-02  6.8797E-02  0.1981      0.4389      0.4721      0.4389      0.1983      6.9841E-02  2.4777E-02
  12   3.3273E-03  1.0434E-02  3.3173E-02  8.5825E-02  0.1638      0.1858      0.1638      8.5948E-02  3.3771E-02  1.3015E-02
  13   1.3189E-03  3.9246E-03  1.1791E-02  2.8558E-02  5.0869E-02  5.8737E-02  5.0878E-02  2.8610E-02  1.2035E-02  4.9364E-03
  14   4.2114E-04  1.1960E-03  3.4306E-03  7.9210E-03  1.3534E-02  1.5707E-02  1.3538E-02  7.9387E-03  3.5107E-03  1.5155E-03
  15   1.3609E-04  3.6925E-04  1.0144E-03  2.2480E-03  3.7213E-03  4.3194E-03  3.7225E-03  2.2541E-03  1.0410E-03  4.7124E-04

 HEAD WILL BE SAVED ON UNIT 1100 AT END OF TIME STEP   30, STRESS PERIOD    2


  VOLUME BUDGET FOR ENTIRE MODEL AT END OF TIME STEP   30, STRESS PERIOD   2
  ---------------------------------------------------------------------------------------------------

     CUMULATIVE VOLUME      L**3       RATES FOR THIS TIME STEP      L**3/T          PACKAGE NAME    
     ------------------                 ------------------------                     ----------------

           IN:                                      IN:
           ---                                      ---
              STO-SS =          17.9523                STO-SS =       2.8480E-02     STORAGE                          
              STO-SY =       46383.0122                STO-SY =          63.9632     STORAGE                          
                 WEL =           0.0000                   WEL =           0.0000     WEL-1                            
                 DRN =           0.0000                   DRN =           0.0000     DRN-0                            
                 API =       60016.8842                   API =         199.0545     MAR                              
                 CHD =       2.0279E-08                   CHD =           0.0000     CHD_0                            

            TOTAL IN =      106417.8486              TOTAL IN =         263.0462

          OUT:                                     OUT:
          ----                                     ----
              STO-SS =          14.6783                STO-SS =       1.9723E-02     STORAGE                          
              STO-SY =       28540.5261                STO-SY =          38.8800     STORAGE                          
                 WEL =       77862.6441                   WEL =         224.1465     WEL-1                            
                 DRN =       9.0893E-05                   DRN =       4.0099E-07     DRN-0                            
                 API =           0.0000                   API =           0.0000     MAR                              
                 CHD =       2.0705E-08                   CHD =           0.0000     CHD_0                            

           TOTAL OUT =      106417.8486             TOTAL OUT =         263.0462

            IN - OUT =      -6.9394E-07              IN - OUT =      -3.0878E-09

 PERCENT DISCREPANCY =          -0.00     PERCENT DISCREPANCY =          -0.00




         TIME SUMMARY AT END OF TIME STEP   30 IN STRESS PERIOD    2
                    SECONDS     MINUTES      HOURS       DAYS        YEARS
                    -----------------------------------------------------------
   TIME STEP LENGTH 8.64000E+05  14400.      240.00      10.000     2.73785E-02
 STRESS PERIOD TIME 2.59200E+07 4.32000E+05  7200.0      300.00     0.82136    
         TOTAL TIME 2.60064E+07 4.33440E+05  7224.0      301.00     0.82409    


end timestep


start timestep kper="2" kstp="31" mode="normal"

 UBDSV1 SAVING           STO-SS ON UNIT   1099 AT TIME STEP     31, STRESS PERIOD      2
 UBDSV1 SAVING           STO-SY ON UNIT   1099 AT TIME STEP     31, STRESS PERIOD      2
 UBDSV1 SAVING     FLOW-JA-FACE ON UNIT   1099 AT TIME STEP     31, STRESS PERIOD      2
 UBDSV06 SAVING       DATA-SPDIS IN MODEL GWF              PACKAGE NPF             CONNECTED TO MODEL GWF              PACKAGE NPF              ON UNIT   1099 AT TIME STEP     31, STRESS PERIOD      2
 UBDSV06 SAVING              WEL IN MODEL GWF              PACKAGE GWF             CONNECTED TO MODEL GWF              PACKAGE WEL-1            ON UNIT   1099 AT TIME STEP     31, STRESS PERIOD      2
 UBDSV06 SAVING              DRN IN MODEL GWF              PACKAGE GWF             CONNECTED TO MODEL GWF              PACKAGE DRN-0            ON UNIT   1099 AT TIME STEP     31, STRESS PERIOD      2
 UBDSV06 SAVING              API IN MODEL GWF              PACKAGE GWF             CONNECTED TO MODEL GWF              PACKAGE MAR              ON UNIT   1099 AT TIME STEP     31, STRESS PERIOD      2
 UBDSV06 SAVING              CHD IN MODEL GWF              PACKAGE GWF             CONNECTED TO MODEL GWF              PACKAGE CHD_0            ON UNIT   1099 AT TIME STEP     31, STRESS PERIOD      2

    CALCULATED INTERCELL FLOW FOR PERIOD 2 STEP 31
(1,1,1): (1,1,2) 4.391264E-03 (1,2,1) 5.404234E-03
(1,1,2): (1,1,1) -4.391264E-03 (1,1,3) 1.121793E-02 (1,2,2) 1.395330E-02
(1,1,3): (1,1,2) -1.121793E-02 (1,1,4) 1.974185E-02 (1,2,3) 3.703879E-02
(1,1,4): (1,1,3) -1.974185E-02 (1,1,5) 2.217997E-02 (1,2,4) 8.053277E-02
(1,1,5): (1,1,4) -2.217997E-02 (1,1,6) 9.159898E-03 (1,2,5) 0.132540
(1,1,6): (1,1,5) -9.159898E-03 (1,1,7) -9.123890E-03 (1,2,6) 0.152787
(1,1,7): (1,1,6) 9.123890E-03 (1,1,8) -2.205240E-02 (1,2,7) 0.132596
(1,1,8): (1,1,7) 2.205240E-02 (1,1,9) -1.926196E-02 (1,2,8) 8.079823E-02
(1,1,9): (1,1,8) 1.926196E-02 (1,1,10) -9.633551E-03 (1,2,9) 3.813187E-02
(1,1,10): (1,1,9) 9.633551E-03 (1,2,10) 1.793880E-02
(1,2,1): (1,1,1) -5.404234E-03 (1,2,2) 1.294024E-02 (1,3,1) 1.554285E-02
(1,2,2): (1,1,2) -1.395330E-02 (1,2,1) -1.294024E-02 (1,2,3) 3.430279E-02 (1,3,2) 4.181125E-02
(1,2,3): (1,1,3) -3.703879E-02 (1,2,2) -3.430279E-02 (1,2,4) 6.322833E-02 (1,3,3) 0.115990
(1,2,4): (1,1,4) -8.053277E-02 (1,2,3) -6.322833E-02 (1,2,5) 7.415696E-02 (1,3,4) 0.264766
(1,2,5): (1,1,5) -0.132540 (1,2,4) -7.415696E-02 (1,2,6) 2.938160E-02 (1,3,5) 0.455635
(1,2,6): (1,1,6) -0.152787 (1,2,5) -2.938160E-02 (1,2,7) -2.928930E-02 (1,3,6) 0.522613
(1,2,7): (1,1,7) -0.132596 (1,2,6) 2.928930E-02 (1,2,8) -7.382020E-02 (1,3,7) 0.455788
(1,2,8): (1,1,8) -8.079823E-02 (1,2,7) 7.382020E-02 (1,2,9) -6.192028E-02 (1,3,8) 0.265498
(1,2,9): (1,1,9) -3.813187E-02 (1,2,8) 6.192028E-02 (1,2,10) -2.982494E-02 (1,3,9) 0.119074
(1,2,10): (1,1,10) -1.793880E-02 (1,2,9) 2.982494E-02 (1,3,10) 5.340044E-02
(1,3,1): (1,2,1) -1.554285E-02 (1,3,2) 3.920795E-02 (1,4,1) 3.149021E-02
(1,3,2): (1,2,2) -4.181125E-02 (1,3,1) -3.920795E-02 (1,3,3) 0.108476 (1,4,2) 8.972269E-02
(1,3,3): (1,2,3) -0.115990 (1,3,2) -0.108476 (1,3,4) 0.211925 (1,4,3) 0.266347
(1,3,4): (1,2,4) -0.264766 (1,3,3) -0.211925 (1,3,5) 0.264668 (1,4,4) 0.661929
(1,3,5): (1,2,5) -0.455635 (1,3,4) -0.264668 (1,3,6) 9.608024E-02 (1,4,5) 1.25084
(1,3,6): (1,2,6) -0.522613 (1,3,5) -9.608024E-02 (1,3,7) -9.583509E-02 (1,4,6) 1.40466
(1,3,7): (1,2,7) -0.455788 (1,3,6) 9.583509E-02 (1,3,8) -0.263752 (1,4,7) 1.25114
(1,3,8): (1,2,8) -0.265498 (1,3,7) 0.263752 (1,3,9) -0.208261 (1,4,8) 0.663337
(1,3,9): (1,2,9) -0.119074 (1,3,8) 0.208261 (1,3,10) -9.548281E-02 (1,4,9) 0.272432
(1,3,10): (1,2,10) -5.340044E-02 (1,3,9) 9.548281E-02 (1,4,10) 0.113523
(1,4,1): (1,3,1) -3.149021E-02 (1,4,2) 9.744492E-02 (1,5,1) 3.858742E-02
(1,4,2): (1,3,2) -8.972269E-02 (1,4,1) -9.744492E-02 (1,4,3) 0.285134 (1,5,2) 0.119416
(1,4,3): (1,3,3) -0.266347 (1,4,2) -0.285134 (1,4,4) 0.607297 (1,5,3) 0.398520
(1,4,4): (1,3,4) -0.661929 (1,4,3) -0.607297 (1,4,5) 0.851337 (1,5,4) 1.18340
(1,4,5): (1,3,5) -1.25084 (1,4,4) -0.851337 (1,4,6) 0.248225 (1,5,5) 2.86601
(1,4,6): (1,3,6) -1.40466 (1,4,5) -0.248225 (1,4,7) -0.247689 (1,5,6) 2.97334
(1,4,7): (1,3,7) -1.25114 (1,4,6) 0.247689 (1,4,8) -0.849297 (1,5,7) 2.86636
(1,4,8): (1,3,8) -0.663337 (1,4,7) 0.849297 (1,4,9) -0.598920 (1,5,8) 1.18502
(1,4,9): (1,3,9) -0.272432 (1,4,8) 0.598920 (1,4,10) -0.254364 (1,5,9) 0.405712
(1,4,10): (1,3,10) -0.113523 (1,4,9) 0.254364 (1,5,10) 0.149010
(1,5,1): (1,4,1) -3.858742E-02 (1,5,2) 0.178321 (1,6,1) -1.512076E-03
(1,5,2): (1,4,2) -0.119416 (1,5,1) -0.178321 (1,5,3) 0.564693 (1,6,2) 1.397144E-03
(1,5,3): (1,4,3) -0.398520 (1,5,2) -0.564693 (1,5,4) 1.39375 (1,6,3) 7.381347E-02
(1,5,4): (1,4,4) -1.18340 (1,5,3) -1.39375 (1,5,5) 2.52885 (1,6,4) 0.784409
(1,5,5): (1,4,5) -2.86601 (1,5,4) -2.52885 (1,5,6) 0.353220 (1,6,5) 5.92470
(1,5,6): (1,4,6) -2.97334 (1,5,5) -0.353220 (1,5,7) -0.352347 (1,6,6) 4.49287
(1,5,7): (1,4,7) -2.86636 (1,5,6) 0.352347 (1,5,8) -2.52548 (1,6,7) 5.92472
(1,5,8): (1,4,8) -1.18502 (1,5,7) 2.52548 (1,5,9) -1.37967 (1,6,8) 0.784346
(1,5,9): (1,4,9) -0.405712 (1,5,8) 1.37967 (1,5,10) -0.511332 (1,6,9) 7.346238E-02
(1,5,10): (1,4,10) -0.149010 (1,5,9) 0.511332 (1,6,10) 1.694462E-04
(1,6,1): (1,5,1) 1.512076E-03 (1,6,2) 0.181235 (1,7,1) -9.052792E-02
(1,6,2): (1,5,2) -1.397144E-03 (1,6,1) -0.181235 (1,6,3) 0.637511 (1,7,2) -0.332417
(1,6,3): (1,5,3) -7.381347E-02 (1,6,2) -0.637511 (1,6,4) 2.11324 (1,7,3) -1.33609
(1,6,4): (1,5,4) -0.784409 (1,6,3) -2.11324 (1,6,5) 7.74570 (1,7,4) -5.04517
(1,6,5): (1,5,5) -5.92470 (1,6,4) -7.74570 (1,6,6) -1.02330 (1,7,5) -18.4773
(1,6,6): (1,5,6) -4.49287 (1,6,5) 1.02330 (1,6,7) 1.02420 (1,7,6) -31.0003
(1,6,7): (1,5,7) -5.92472 (1,6,6) -1.02420 (1,6,8) -7.74227 (1,7,7) -18.4780
(1,6,8): (1,5,8) -0.784346 (1,6,7) 7.74227 (1,6,9) -2.09936 (1,7,8) -5.04831
(1,6,9): (1,5,9) -7.346238E-02 (1,6,8) 2.09936 (1,6,10) -0.584993 (1,7,9) -1.35145
(1,6,10): (1,5,10) -1.694462E-04 (1,6,9) 0.584993 (1,7,10) -0.404370
(1,7,1): (1,6,1) 9.052792E-02 (1,7,2) -6.032705E-02 (1,8,1) -7.051662E-02
(1,7,2): (1,6,2) 0.332417 (1,7,1) 6.032705E-02 (1,7,3) -0.360597 (1,8,2) -0.257263
(1,7,3): (1,6,3) 1.33609 (1,7,2) 0.360597 (1,7,4) -1.51721 (1,8,3) -1.05362
(1,7,4): (1,6,4) 5.04517 (1,7,3) 1.51721 (1,7,5) -4.76154 (1,8,4) -4.12893
(1,7,5): (1,6,5) 18.4773 (1,7,4) 4.76154 (1,7,6) -11.7017 (1,8,5) -15.5071
(1,7,6): (1,6,6) 31.0003 (1,7,5) 11.7017 (1,7,7) 11.7020 (1,8,6) -58.5286
(1,7,7): (1,6,7) 18.4780 (1,7,6) -11.7020 (1,7,8) 4.76238 (1,8,7) -15.5076
(1,7,8): (1,6,8) 5.04831 (1,7,7) -4.76238 (1,7,9) 1.51869 (1,8,8) -4.13140
(1,7,9): (1,6,9) 1.35145 (1,7,8) -1.51869 (1,7,10) 0.356245 (1,8,9) -1.06562
(1,7,10): (1,6,10) 0.404370 (1,7,9) -0.356245 (1,8,10) -0.312795
(1,8,1): (1,7,1) 7.051662E-02 (1,8,2) -0.247054 (1,9,1) 5.038960E-02
(1,8,2): (1,7,2) 0.257263 (1,8,1) 0.247054 (1,8,3) -1.15778 (1,9,2) 0.216339
(1,8,3): (1,7,3) 1.05362 (1,8,2) 1.15778 (1,8,4) -4.60720 (1,9,3) 0.975347
(1,8,4): (1,7,4) 4.12893 (1,8,3) 4.60720 (1,8,5) -16.2199 (1,9,4) 4.02436
(1,8,5): (1,7,5) 15.5071 (1,8,4) 16.2199 (1,8,6) -52.4392 (1,9,5) 15.4262
(1,8,6): (1,7,6) 58.5286 (1,8,5) 52.4392 (1,8,7) 52.4390 (1,9,6) 58.4317
(1,8,7): (1,7,7) 15.5076 (1,8,6) -52.4390 (1,8,8) 16.2186 (1,9,7) 15.4264
(1,8,8): (1,7,8) 4.13140 (1,8,7) -16.2186 (1,8,9) 4.59877 (1,9,8) 4.02557
(1,8,9): (1,7,9) 1.06562 (1,8,8) -4.59877 (1,8,10) 1.10940 (1,9,9) 0.982796
(1,8,10): (1,7,10) 0.312795 (1,8,9) -1.10940 (1,9,10) 0.257804
(1,9,1): (1,8,1) -5.038960E-02 (1,9,2) -8.105355E-02 (1,10,1) 8.005249E-02
(1,9,2): (1,8,2) -0.216339 (1,9,1) 8.105355E-02 (1,9,3) -0.397387 (1,10,2) 0.311850
(1,9,3): (1,8,3) -0.975347 (1,9,2) 0.397387 (1,9,4) -1.54042 (1,10,3) 1.30069
(1,9,4): (1,8,4) -4.02436 (1,9,3) 1.54042 (1,9,5) -4.72853 (1,10,4) 5.01814
(1,9,5): (1,8,5) -15.4262 (1,9,4) 4.72853 (1,9,6) -11.6827 (1,10,5) 18.5590
(1,9,6): (1,8,6) -58.4317 (1,9,5) 11.6827 (1,9,7) 11.6827 (1,10,6) 31.1051
(1,9,7): (1,8,7) -15.4264 (1,9,6) -11.6827 (1,9,8) 4.72838 (1,10,7) 18.5594
(1,9,8): (1,8,8) -4.02557 (1,9,7) -4.72838 (1,9,9) 1.53856 (1,10,8) 5.02056
(1,9,9): (1,8,9) -0.982796 (1,9,8) -1.53856 (1,9,10) 0.383487 (1,10,9) 1.31359
(1,9,10): (1,8,10) -0.257804 (1,9,9) -0.383487 (1,10,10) 0.376482
(1,10,1): (1,9,1) -8.005249E-02 (1,10,2) 0.150438 (1,11,1) 3.969435E-03
(1,10,2): (1,9,2) -0.311850 (1,10,1) -0.150438 (1,10,3) 0.586090 (1,11,2) 1.337568E-03
(1,10,3): (1,9,3) -1.30069 (1,10,2) -0.586090 (1,10,4) 2.09911 (1,11,3) -7.894471E-02
(1,10,4): (1,9,4) -5.01814 (1,10,3) -2.09911 (1,10,5) 7.88125 (1,11,4) -0.833058
(1,10,5): (1,9,5) -18.5590 (1,10,4) -7.88125 (1,10,6) -0.995172 (1,11,5) -6.11358
(1,10,6): (1,9,6) -31.1051 (1,10,5) 0.995172 (1,10,7) 0.995610 (1,11,6) -4.71553
(1,10,7): (1,9,7) -18.5594 (1,10,6) -0.995610 (1,10,8) -7.87935 (1,11,7) -6.11355
(1,10,8): (1,9,8) -5.02056 (1,10,7) 7.87935 (1,10,9) -2.09034 (1,11,8) -0.832823
(1,10,9): (1,9,9) -1.31359 (1,10,8) 2.09034 (1,10,10) -0.548054 (1,11,9) -7.798701E-02
(1,10,10): (1,9,10) -0.376482 (1,10,9) 0.548054 (1,11,10) 4.140443E-03
(1,11,1): (1,10,1) -3.969435E-03 (1,11,2) 0.147802 (1,12,1) -2.854004E-02
(1,11,2): (1,10,2) -1.337568E-03 (1,11,1) -0.147802 (1,11,3) 0.505407 (1,12,2) -9.961645E-02
(1,11,3): (1,10,3) 7.894471E-02 (1,11,2) -0.505407 (1,11,4) 1.33598 (1,12,3) -0.363764
(1,11,4): (1,10,4) 0.833058 (1,11,3) -1.33598 (1,11,5) 2.52443 (1,12,4) -1.14875
(1,11,5): (1,10,5) 6.11358 (1,11,4) -2.52443 (1,11,6) 0.346489 (1,12,5) -2.86996
(1,11,6): (1,10,6) 4.71553 (1,11,5) -0.346489 (1,11,7) -0.346026 (1,12,6) -2.98978
(1,11,7): (1,10,7) 6.11355 (1,11,6) 0.346026 (1,11,8) -2.52241 (1,12,7) -2.87015
(1,11,8): (1,10,8) 0.832823 (1,11,7) 2.52241 (1,11,9) -1.32655 (1,12,8) -1.14973
(1,11,9): (1,10,9) 7.798701E-02 (1,11,8) 1.32655 (1,11,10) -0.465547 (1,12,9) -0.368656
(1,11,10): (1,10,10) -4.140443E-03 (1,11,9) 0.465547 (1,12,10) -0.122213
(1,12,1): (1,11,1) 2.854004E-02 (1,12,2) 7.669147E-02 (1,13,1) -2.220191E-02
(1,12,2): (1,11,2) 9.961645E-02 (1,12,1) -7.669147E-02 (1,12,3) 0.240891 (1,13,2) -7.004846E-02
(1,12,3): (1,11,3) 0.363764 (1,12,2) -0.240891 (1,12,4) 0.549595 (1,13,3) -0.225565
(1,12,4): (1,11,4) 1.14875 (1,12,3) -0.549595 (1,12,5) 0.808583 (1,13,4) -0.596896
(1,12,5): (1,11,5) 2.86996 (1,12,4) -0.808583 (1,12,6) 0.229333 (1,13,5) -1.17337
(1,12,6): (1,11,6) 2.98978 (1,12,5) -0.229333 (1,12,7) -0.229052 (1,13,6) -1.32134
(1,12,7): (1,11,7) 2.87015 (1,12,6) 0.229052 (1,12,8) -0.807388 (1,13,7) -1.17352
(1,12,8): (1,11,8) 1.14973 (1,12,7) 0.807388 (1,12,9) -0.544161 (1,13,8) -0.597735
(1,12,9): (1,11,9) 0.368656 (1,12,8) 0.544161 (1,12,10) -0.218869 (1,13,9) -0.229571
(1,12,10): (1,11,10) 0.122213 (1,12,9) 0.218869 (1,13,10) -8.730534E-02
(1,13,1): (1,12,1) 2.220191E-02 (1,13,2) 2.884176E-02 (1,14,1) -1.023389E-02
(1,13,2): (1,12,2) 7.004846E-02 (1,13,1) -2.884176E-02 (1,13,3) 8.535150E-02 (1,14,2) -3.026455E-02
(1,13,3): (1,12,3) 0.225565 (1,13,2) -8.535150E-02 (1,13,4) 0.178436 (1,14,3) -9.071549E-02
(1,13,4): (1,12,4) 0.596896 (1,13,3) -0.178436 (1,13,5) 0.234131 (1,14,4) -0.220185
(1,13,5): (1,12,5) 1.17337 (1,13,4) -0.234131 (1,13,6) 8.288837E-02 (1,14,5) -0.394275
(1,13,6): (1,12,6) 1.32134 (1,13,5) -8.288837E-02 (1,13,7) -8.276550E-02 (1,14,6) -0.453964
(1,13,7): (1,12,7) 1.17352 (1,13,6) 8.276550E-02 (1,13,8) -0.233620 (1,14,7) -0.394355
(1,13,8): (1,12,8) 0.597735 (1,13,7) 0.233620 (1,13,9) -0.176191 (1,14,8) -0.220599
(1,13,9): (1,12,9) 0.229571 (1,13,8) 0.176191 (1,13,10) -7.661839E-02 (1,14,9) -9.262423E-02
(1,13,10): (1,12,10) 8.730534E-02 (1,13,9) 7.661839E-02 (1,14,10) -3.810541E-02
(1,14,1): (1,13,1) 1.023389E-02 (1,14,2) 8.811385E-03 (1,15,1) -3.332732E-03
(1,14,2): (1,13,2) 3.026455E-02 (1,14,1) -8.811385E-03 (1,14,3) 2.490380E-02 (1,15,2) -9.411226E-03
(1,14,3): (1,13,3) 9.071549E-02 (1,14,2) -2.490380E-02 (1,14,4) 4.902004E-02 (1,15,3) -2.689918E-02
(1,14,4): (1,13,4) 0.220185 (1,14,3) -4.902004E-02 (1,14,5) 6.031580E-02 (1,15,4) -6.203017E-02
(1,14,5): (1,13,5) 0.394275 (1,14,4) -6.031580E-02 (1,14,6) 2.341713E-02 (1,15,5) -0.106034
(1,14,6): (1,13,6) 0.453964 (1,14,5) -2.341713E-02 (1,14,7) -2.337354E-02 (1,15,6) -0.122823
(1,14,7): (1,13,7) 0.394355 (1,14,6) 2.337354E-02 (1,14,8) -6.013993E-02 (1,15,7) -0.106061
(1,14,8): (1,13,8) 0.220599 (1,14,7) 6.013993E-02 (1,14,9) -4.827228E-02 (1,15,8) -6.217216E-02
(1,14,9): (1,13,9) 9.262423E-02 (1,14,8) 4.827228E-02 (1,14,10) -2.210827E-02 (1,15,9) -2.753598E-02
(1,14,10): (1,13,10) 3.810541E-02 (1,14,9) 2.210827E-02 (1,15,10) -1.193573E-02
(1,15,1): (1,14,1) 3.332732E-03 (1,15,2) 2.732928E-03
(1,15,2): (1,14,2) 9.411226E-03 (1,15,1) -2.732928E-03 (1,15,3) 7.416188E-03
(1,15,3): (1,14,3) 2.689918E-02 (1,15,2) -7.416188E-03 (1,15,4) 1.389361E-02
(1,15,4): (1,14,4) 6.203017E-02 (1,15,3) -1.389361E-02 (1,15,5) 1.633236E-02
(1,15,5): (1,14,5) 0.106034 (1,15,4) -1.633236E-02 (1,15,6) 6.644252E-03
(1,15,6): (1,14,6) 0.122823 (1,15,5) -6.644252E-03 (1,15,7) -6.628431E-03
(1,15,7): (1,14,7) 0.106061 (1,15,6) 6.628431E-03 (1,15,8) -1.627071E-02
(1,15,8): (1,14,8) 6.217216E-02 (1,15,7) 1.627071E-02 (1,15,9) -1.364091E-02
(1,15,9): (1,14,9) 2.753598E-02 (1,15,8) 1.364091E-02 (1,15,10) -6.508868E-03
(1,15,10): (1,14,10) 1.193573E-02 (1,15,9) 6.508868E-03

 WEL PACKAGE (WEL-1) FLOW RATES   PERIOD      2   STEP       31
 ----------------------------------------------------------------------------------------
   NUMBER   CELLID                    RATE       NAME                                    
 ----------------------------------------------------------------------------------------
     1      (1,8,6)              -222.78795      WEL                                     
 ----------------------------------------------------------------------------------------




 DRN PACKAGE (DRN-0) FLOW RATES   PERIOD      2   STEP       31
 ----------------------------------------------------------------------------------------
   NUMBER   CELLID                    RATE       NAME                                    
 ----------------------------------------------------------------------------------------
     1      (1,1,1)               0.0000000      SURF                                    
     2      (1,1,2)               0.0000000      SURF                                    
     3      (1,1,3)               0.0000000      SURF                                    
     4      (1,1,4)               0.0000000      SURF                                    
     5      (1,1,5)               0.0000000      SURF                                    
     6      (1,1,6)               0.0000000      SURF                                    
     7      (1,1,7)               0.0000000      SURF                                    
     8      (1,1,8)               0.0000000      SURF                                    
     9      (1,1,9)               0.0000000      SURF                                    
     10     (1,1,10)              0.0000000      SURF                                    
     11     (1,2,1)               0.0000000      SURF                                    
     12     (1,2,2)               0.0000000      SURF                                    
     13     (1,2,3)               0.0000000      SURF                                    
     14     (1,2,4)               0.0000000      SURF                                    
     15     (1,2,5)               0.0000000      SURF                                    
     16     (1,2,6)               0.0000000      SURF                                    
     17     (1,2,7)               0.0000000      SURF                                    
     18     (1,2,8)               0.0000000      SURF                                    
     19     (1,2,9)               0.0000000      SURF                                    
     20     (1,2,10)              0.0000000      SURF                                    
     21     (1,3,1)               0.0000000      SURF                                    
     22     (1,3,2)               0.0000000      SURF                                    
     23     (1,3,3)               0.0000000      SURF                                    
     24     (1,3,4)               0.0000000      SURF                                    
     25     (1,3,5)               0.0000000      SURF                                    
     26     (1,3,6)               0.0000000      SURF                                    
     27     (1,3,7)               0.0000000      SURF                                    
     28     (1,3,8)               0.0000000      SURF                                    
     29     (1,3,9)               0.0000000      SURF                                    
     30     (1,3,10)              0.0000000      SURF                                    
     31     (1,4,1)               0.0000000      SURF                                    
     32     (1,4,2)               0.0000000      SURF                                    
     33     (1,4,3)               0.0000000      SURF                                    
     34     (1,4,4)               0.0000000      SURF                                    
     35     (1,4,5)               0.0000000      SURF                                    
     36     (1,4,6)               0.0000000      SURF                                    
     37     (1,4,7)               0.0000000      SURF                                    
     38     (1,4,8)               0.0000000      SURF                                    
     39     (1,4,9)               0.0000000      SURF                                    
     40     (1,4,10)              0.0000000      SURF                                    
     41     (1,5,1)               0.0000000      SURF                                    
     42     (1,5,2)               0.0000000      SURF                                    
     43     (1,5,3)               0.0000000      SURF                                    
     44     (1,5,4)               0.0000000      SURF                                    
     45     (1,5,5)               0.0000000      SURF                                    
     46     (1,5,6)               0.0000000      SURF                                    
     47     (1,5,7)               0.0000000      SURF                                    
     48     (1,5,8)               0.0000000      SURF                                    
     49     (1,5,9)               0.0000000      SURF                                    
     50     (1,5,10)              0.0000000      SURF                                    
     51     (1,6,1)               0.0000000      SURF                                    
     52     (1,6,2)               0.0000000      SURF                                    
     53     (1,6,3)               0.0000000      SURF                                    
     54     (1,6,4)               0.0000000      SURF                                    
     55     (1,6,5)               0.0000000      SURF                                    
     56     (1,6,6)               0.0000000      SURF                                    
     57     (1,6,7)              -8.39645509E-09 SURF                                    
     58     (1,6,8)               0.0000000      SURF                                    
     59     (1,6,9)               0.0000000      SURF                                    
     60     (1,6,10)              0.0000000      SURF                                    
     61     (1,7,1)               0.0000000      SURF                                    
     62     (1,7,2)               0.0000000      SURF                                    
     63     (1,7,3)               0.0000000      SURF                                    
     64     (1,7,4)               0.0000000      SURF                                    
     65     (1,7,5)               0.0000000      SURF                                    
     66     (1,7,6)               0.0000000      SURF                                    
     67     (1,7,7)               0.0000000      SURF                                    
     68     (1,7,8)               0.0000000      SURF                                    
     69     (1,7,9)               0.0000000      SURF                                    
     70     (1,7,10)              0.0000000      SURF                                    
     71     (1,8,1)               0.0000000      SURF                                    
     72     (1,8,2)               0.0000000      SURF                                    
     73     (1,8,3)               0.0000000      SURF                                    
     74     (1,8,4)               0.0000000      SURF                                    
     75     (1,8,5)               0.0000000      SURF                                    
     76     (1,8,6)               0.0000000      SURF                                    
     77     (1,8,7)               0.0000000      SURF                                    
     78     (1,8,8)               0.0000000      SURF                                    
     79     (1,8,9)               0.0000000      SURF                                    
     80     (1,8,10)              0.0000000      SURF                                    
     81     (1,9,1)               0.0000000      SURF                                    
     82     (1,9,2)               0.0000000      SURF                                    
     83     (1,9,3)               0.0000000      SURF                                    
     84     (1,9,4)               0.0000000      SURF                                    
     85     (1,9,5)               0.0000000      SURF                                    
     86     (1,9,6)               0.0000000      SURF                                    
     87     (1,9,7)               0.0000000      SURF                                    
     88     (1,9,8)               0.0000000      SURF                                    
     89     (1,9,9)               0.0000000      SURF                                    
     90     (1,9,10)              0.0000000      SURF                                    
     91     (1,10,1)              0.0000000      SURF                                    
     92     (1,10,2)              0.0000000      SURF                                    
     93     (1,10,3)              0.0000000      SURF                                    
     94     (1,10,4)              0.0000000      SURF                                    
     95     (1,10,5)              0.0000000      SURF                                    
     96     (1,10,6)              0.0000000      SURF                                    
     97     (1,10,7)             -3.90777132E-07 SURF                                    
     98     (1,10,8)              0.0000000      SURF                                    
     99     (1,10,9)              0.0000000      SURF                                    
    100     (1,10,10)             0.0000000      SURF                                    
    101     (1,11,1)              0.0000000      SURF                                    
    102     (1,11,2)              0.0000000      SURF                                    
    103     (1,11,3)              0.0000000      SURF                                    
    104     (1,11,4)              0.0000000      SURF                                    
    105     (1,11,5)              0.0000000      SURF                                    
    106     (1,11,6)              0.0000000      SURF                                    
    107     (1,11,7)              0.0000000      SURF                                    
    108     (1,11,8)              0.0000000      SURF                                    
    109     (1,11,9)              0.0000000      SURF                                    
    110     (1,11,10)             0.0000000      SURF                                    
    111     (1,12,1)              0.0000000      SURF                                    
    112     (1,12,2)              0.0000000      SURF                                    
    113     (1,12,3)              0.0000000      SURF                                    
    114     (1,12,4)              0.0000000      SURF                                    
    115     (1,12,5)              0.0000000      SURF                                    
    116     (1,12,6)              0.0000000      SURF                                    
    117     (1,12,7)              0.0000000      SURF                                    
    118     (1,12,8)              0.0000000      SURF                                    
    119     (1,12,9)              0.0000000      SURF                                    
    120     (1,12,10)             0.0000000      SURF                                    
    121     (1,13,1)              0.0000000      SURF                                    
    122     (1,13,2)              0.0000000      SURF                                    
    123     (1,13,3)              0.0000000      SURF                                    
    124     (1,13,4)              0.0000000      SURF                                    
    125     (1,13,5)              0.0000000      SURF                                    
    126     (1,13,6)              0.0000000      SURF                                    
    127     (1,13,7)              0.0000000      SURF                                    
    128     (1,13,8)              0.0000000      SURF                                    
    129     (1,13,9)              0.0000000      SURF                                    
    130     (1,13,10)             0.0000000      SURF                                    
    131     (1,14,1)              0.0000000      SURF                                    
    132     (1,14,2)              0.0000000      SURF                                    
    133     (1,14,3)              0.0000000      SURF                                    
    134     (1,14,4)              0.0000000      SURF                                    
    135     (1,14,5)              0.0000000      SURF                                    
    136     (1,14,6)              0.0000000      SURF                                    
    137     (1,14,7)              0.0000000      SURF                                    
    138     (1,14,8)              0.0000000      SURF                                    
    139     (1,14,9)              0.0000000      SURF                                    
    140     (1,14,10)             0.0000000      SURF                                    
    141     (1,15,1)              0.0000000      SURF                                    
    142     (1,15,2)              0.0000000      SURF                                    
    143     (1,15,3)              0.0000000      SURF                                    
    144     (1,15,4)              0.0000000      SURF                                    
    145     (1,15,5)              0.0000000      SURF                                    
    146     (1,15,6)              0.0000000      SURF                                    
    147     (1,15,7)              0.0000000      SURF                                    
    148     (1,15,8)              0.0000000      SURF                                    
    149     (1,15,9)              0.0000000      SURF                                    
    150     (1,15,10)             0.0000000      SURF                                    
 ----------------------------------------------------------------------------------------




 API PACKAGE (MAR) FLOW RATES   PERIOD      2   STEP       31
 -----------------------------------------------
   NUMBER   CELLID                    RATE      
 -----------------------------------------------
     1      (1,6,5)               33.169203     
     2      (1,6,6)               33.169203     
     3      (1,6,7)               33.169203     
     4      (1,10,5)              33.547935     
     5      (1,10,6)              33.547935     
     6      (1,10,7)              33.547935     
 -----------------------------------------------



1
  HEAD IN LAYER   1 AT END OF TIME STEP  31 IN STRESS PERIOD    2
  ---------------------------------------------------------------------------

            1           2           3           4           5           6           7           8           9          10
 ........................................................................................................................
   1   3.0786E-04  7.4695E-04  1.8685E-03  3.8420E-03  6.0586E-03  6.9740E-03  6.0622E-03  3.8583E-03  1.9329E-03  9.6969E-04
   2   8.4824E-04  2.1420E-03  5.5704E-03  1.1886E-02  1.9287E-02  2.2219E-02  1.9296E-02  1.1929E-02  5.7439E-03  2.7631E-03
   3   2.4021E-03  6.3205E-03  1.7150E-02  3.8261E-02  6.4558E-02  7.4096E-02  6.4583E-02  3.8377E-02  1.7630E-02  8.0988E-03
   4   5.5494E-03  1.5279E-02  4.3668E-02  0.1038      0.1873      0.2117      0.1874      0.1040      4.4752E-02  1.9429E-02
   5   9.4045E-03  2.7188E-02  8.3192E-02  0.2196      0.4613      0.4950      0.4614      0.2200      8.4981E-02  3.4279E-02
   6   9.2535E-03  2.7328E-02  9.0507E-02  0.2958      0.9999      0.9069       1.000      0.2962      9.2260E-02  3.4296E-02
   7   2.0905E-04 -5.8235E-03 -4.1904E-02 -0.1943     -0.6799      -1.935     -0.6798     -0.1942     -4.1649E-02 -6.0028E-03
   8  -6.8425E-03 -3.1565E-02 -0.1477     -0.6153      -2.344      -9.193      -2.344     -0.6155     -0.1487     -3.7301E-02
   9  -1.8026E-03 -9.9094E-03 -4.9688E-02 -0.2045     -0.6872      -1.942     -0.6872     -0.2045     -4.9884E-02 -1.1491E-02
  10   6.1977E-03  2.1210E-02  7.9357E-02  0.2835       1.000      0.9095       1.000      0.2837      8.0427E-02  2.6059E-02
  11   6.5944E-03  2.1343E-02  7.1525E-02  0.2025      0.4442      0.4772      0.4442      0.2027      7.2691E-02  2.6472E-02
  12   3.7423E-03  1.1403E-02  3.5407E-02  8.9877E-02  0.1694      0.1919      0.1694      9.0022E-02  3.6091E-02  1.4283E-02
  13   1.5229E-03  4.4058E-03  1.2930E-02  3.0719E-02  5.4006E-02  6.2244E-02  5.4018E-02  3.0782E-02  1.3217E-02  5.5652E-03
  14   4.9966E-04  1.3807E-03  3.8701E-03  8.7678E-03  1.4790E-02  1.7128E-02  1.4795E-02  8.7897E-03  3.9667E-03  1.7568E-03
  15   1.6640E-04  4.3968E-04  1.1812E-03  2.5702E-03  4.2028E-03  4.8669E-03  4.2043E-03  2.5780E-03  1.2142E-03  5.6342E-04

 HEAD WILL BE SAVED ON UNIT 1100 AT END OF TIME STEP   31, STRESS PERIOD    2


  VOLUME BUDGET FOR ENTIRE MODEL AT END OF TIME STEP   31, STRESS PERIOD   2
  ---------------------------------------------------------------------------------------------------

     CUMULATIVE VOLUME      L**3       RATES FOR THIS TIME STEP      L**3/T          PACKAGE NAME    
     ------------------                 ------------------------                     ----------------

           IN:                                      IN:
           ---                                      ---
              STO-SS =          18.2228                STO-SS =       2.7051E-02     STORAGE                          
              STO-SY =       46989.3483                STO-SY =          60.6336     STORAGE                          
                 WEL =           0.0000                   WEL =           0.0000     WEL-1                            
                 DRN =           0.0000                   DRN =           0.0000     DRN-0                            
                 API =       62018.3983                   API =         200.1514     MAR                              
                 CHD =       2.0279E-08                   CHD =           0.0000     CHD_0                            

            TOTAL IN =      109025.9693              TOTAL IN =         260.8121

          OUT:                                     OUT:
          ----                                     ----
              STO-SS =          14.8711                STO-SS =       1.9278E-02     STORAGE                          
              STO-SY =       28920.5745                STO-SY =          38.0048     STORAGE                          
                 WEL =       80090.5237                   WEL =         222.7880     WEL-1                            
                 DRN =       9.4885E-05                   DRN =       3.9917E-07     DRN-0                            
                 API =           0.0000                   API =           0.0000     MAR                              
                 CHD =       2.0705E-08                   CHD =           0.0000     CHD_0                            

           TOTAL OUT =      109025.9693             TOTAL OUT =         260.8121

            IN - OUT =      -7.2464E-07              IN - OUT =      -3.0713E-09

 PERCENT DISCREPANCY =          -0.00     PERCENT DISCREPANCY =          -0.00




         TIME SUMMARY AT END OF TIME STEP   31 IN STRESS PERIOD    2
                    SECONDS     MINUTES      HOURS       DAYS        YEARS
                    -----------------------------------------------------------
   TIME STEP LENGTH 8.64000E+05  14400.      240.00      10.000     2.73785E-02
 STRESS PERIOD TIME 2.67840E+07 4.46400E+05  7440.0      310.00     0.84873    
         TOTAL TIME 2.68704E+07 4.47840E+05  7464.0      311.00     0.85147    


end timestep


start timestep kper="2" kstp="32" mode="normal"

 UBDSV1 SAVING           STO-SS ON UNIT   1099 AT TIME STEP     32, STRESS PERIOD      2
 UBDSV1 SAVING           STO-SY ON UNIT   1099 AT TIME STEP     32, STRESS PERIOD      2
 UBDSV1 SAVING     FLOW-JA-FACE ON UNIT   1099 AT TIME STEP     32, STRESS PERIOD      2
 UBDSV06 SAVING       DATA-SPDIS IN MODEL GWF              PACKAGE NPF             CONNECTED TO MODEL GWF              PACKAGE NPF              ON UNIT   1099 AT TIME STEP     32, STRESS PERIOD      2
 UBDSV06 SAVING              WEL IN MODEL GWF              PACKAGE GWF             CONNECTED TO MODEL GWF              PACKAGE WEL-1            ON UNIT   1099 AT TIME STEP     32, STRESS PERIOD      2
 UBDSV06 SAVING              DRN IN MODEL GWF              PACKAGE GWF             CONNECTED TO MODEL GWF              PACKAGE DRN-0            ON UNIT   1099 AT TIME STEP     32, STRESS PERIOD      2
 UBDSV06 SAVING              API IN MODEL GWF              PACKAGE GWF             CONNECTED TO MODEL GWF              PACKAGE MAR              ON UNIT   1099 AT TIME STEP     32, STRESS PERIOD      2
 UBDSV06 SAVING              CHD IN MODEL GWF              PACKAGE GWF             CONNECTED TO MODEL GWF              PACKAGE CHD_0            ON UNIT   1099 AT TIME STEP     32, STRESS PERIOD      2

    CALCULATED INTERCELL FLOW FOR PERIOD 2 STEP 32
(1,1,1): (1,1,2) 4.985727E-03 (1,2,1) 6.119793E-03
(1,1,2): (1,1,1) -4.985727E-03 (1,1,3) 1.253807E-02 (1,2,2) 1.544636E-02
(1,1,3): (1,1,2) -1.253807E-02 (1,1,4) 2.170125E-02 (1,2,3) 4.024026E-02
(1,1,4): (1,1,3) -2.170125E-02 (1,1,5) 2.407097E-02 (1,2,4) 8.620714E-02
(1,1,5): (1,1,4) -2.407097E-02 (1,1,6) 9.932654E-03 (1,2,5) 0.140501
(1,1,6): (1,1,5) -9.932654E-03 (1,1,7) -9.887761E-03 (1,2,6) 0.161621
(1,1,7): (1,1,6) 9.887761E-03 (1,1,8) -2.391596E-02 (1,2,7) 0.140568
(1,1,8): (1,1,7) 2.391596E-02 (1,1,9) -2.113143E-02 (1,2,8) 8.651871E-02
(1,1,9): (1,1,8) 2.113143E-02 (1,1,10) -1.069865E-02 (1,2,9) 4.149557E-02
(1,1,10): (1,1,9) 1.069865E-02 (1,2,10) 1.992683E-02
(1,2,1): (1,1,1) -6.119793E-03 (1,2,2) 1.431219E-02 (1,3,1) 1.722869E-02
(1,2,2): (1,1,2) -1.544636E-02 (1,2,1) -1.431219E-02 (1,2,3) 3.733124E-02 (1,3,2) 4.528776E-02
(1,2,3): (1,1,3) -4.024026E-02 (1,2,2) -3.733124E-02 (1,2,4) 6.765964E-02 (1,3,3) 0.123296
(1,2,4): (1,1,4) -8.620714E-02 (1,2,3) -6.765964E-02 (1,2,5) 7.833123E-02 (1,3,4) 0.277348
(1,2,5): (1,1,5) -0.140501 (1,2,4) -7.833123E-02 (1,2,6) 3.102539E-02 (1,3,5) 0.472764
(1,2,6): (1,1,6) -0.161621 (1,2,5) -3.102539E-02 (1,2,7) -3.091306E-02 (1,3,6) 0.541238
(1,2,7): (1,1,7) -0.140568 (1,2,6) 3.091306E-02 (1,2,8) -7.793205E-02 (1,3,7) 0.472944
(1,2,8): (1,1,8) -8.651871E-02 (1,2,7) 7.793205E-02 (1,2,9) -6.614543E-02 (1,3,8) 0.278190
(1,2,9): (1,1,9) -4.149557E-02 (1,2,8) 6.614543E-02 (1,2,10) -3.226540E-02 (1,3,9) 0.126764
(1,2,10): (1,1,10) -1.992683E-02 (1,2,9) 3.226540E-02 (1,3,10) 5.804222E-02
(1,3,1): (1,2,1) -1.722869E-02 (1,3,2) 4.237045E-02 (1,4,1) 3.399457E-02
(1,3,2): (1,2,2) -4.528776E-02 (1,3,1) -4.237045E-02 (1,3,3) 0.115333 (1,4,2) 9.465161E-02
(1,3,3): (1,2,3) -0.123296 (1,3,2) -0.115333 (1,3,4) 0.221628 (1,4,3) 0.275990
(1,3,4): (1,2,4) -0.277348 (1,3,3) -0.221628 (1,3,5) 0.273364 (1,4,4) 0.677008
(1,3,5): (1,2,5) -0.472764 (1,3,4) -0.273364 (1,3,6) 9.920335E-02 (1,4,5) 1.26953
(1,3,6): (1,2,6) -0.541238 (1,3,5) -9.920335E-02 (1,3,7) -9.891151E-02 (1,4,6) 1.42333
(1,3,7): (1,2,7) -0.472944 (1,3,6) 9.891151E-02 (1,3,8) -0.272302 (1,4,7) 1.26987
(1,3,8): (1,2,8) -0.278190 (1,3,7) 0.272302 (1,3,9) -0.217481 (1,4,8) 0.678586
(1,3,9): (1,2,9) -0.126764 (1,3,8) 0.217481 (1,3,10) -0.100969 (1,4,9) 0.282659
(1,3,10): (1,2,10) -5.804222E-02 (1,3,9) 0.100969 (1,4,10) 0.120166
(1,4,1): (1,3,1) -3.399457E-02 (1,4,2) 0.103033 (1,5,1) 4.014581E-02
(1,4,2): (1,3,2) -9.465161E-02 (1,4,1) -0.103033 (1,4,3) 0.296708 (1,5,2) 0.121571
(1,4,3): (1,3,3) -0.275990 (1,4,2) -0.296708 (1,4,4) 0.622432 (1,5,3) 0.400143
(1,4,4): (1,3,4) -0.677008 (1,4,3) -0.622432 (1,4,5) 0.863595 (1,5,4) 1.18092
(1,4,5): (1,3,5) -1.26953 (1,4,4) -0.863595 (1,4,6) 0.251305 (1,5,5) 2.85955
(1,4,6): (1,3,6) -1.42333 (1,4,5) -0.251305 (1,4,7) -0.250681 (1,5,6) 2.96092
(1,4,7): (1,3,7) -1.26987 (1,4,6) 0.250681 (1,4,8) -0.861280 (1,5,7) 2.85993
(1,4,8): (1,3,8) -0.678586 (1,4,7) 0.861280 (1,4,9) -0.613156 (1,5,8) 1.18268
(1,4,9): (1,3,9) -0.282659 (1,4,8) 0.613156 (1,4,10) -0.263431 (1,5,9) 0.407739
(1,4,10): (1,3,10) -0.120166 (1,4,9) 0.263431 (1,5,10) 0.152151
(1,5,1): (1,4,1) -4.014581E-02 (1,5,2) 0.184509 (1,6,1) -4.081250E-03
(1,5,2): (1,4,2) -0.121571 (1,5,1) -0.184509 (1,5,3) 0.575760 (1,6,2) -6.386645E-03
(1,5,3): (1,4,3) -0.400143 (1,5,2) -0.575760 (1,5,4) 1.40487 (1,6,3) 5.122047E-02
(1,5,4): (1,4,4) -1.18092 (1,5,3) -1.40487 (1,5,5) 2.53737 (1,6,4) 0.737152
(1,5,5): (1,4,5) -2.85955 (1,5,4) -2.53737 (1,5,6) 0.350488 (1,6,5) 5.87883
(1,5,6): (1,4,6) -2.96092 (1,5,5) -0.350488 (1,5,7) -0.349491 (1,6,6) 4.43874
(1,5,7): (1,4,7) -2.85993 (1,5,6) 0.349491 (1,5,8) -2.53362 (1,6,7) 5.87883
(1,5,8): (1,4,8) -1.18268 (1,5,7) 2.53362 (1,5,9) -1.38962 (1,6,8) 0.736988
(1,5,9): (1,4,9) -0.407739 (1,5,8) 1.38962 (1,5,10) -0.519298 (1,6,9) 5.039587E-02
(1,5,10): (1,4,10) -0.152151 (1,5,9) 0.519298 (1,6,10) -9.618980E-03
(1,6,1): (1,5,1) 4.081250E-03 (1,6,2) 0.182199 (1,7,1) -9.735405E-02
(1,6,2): (1,5,2) 6.386645E-03 (1,6,1) -0.182199 (1,6,3) 0.633696 (1,7,2) -0.349905
(1,6,3): (1,5,3) -5.122047E-02 (1,6,2) -0.633696 (1,6,4) 2.09961 (1,7,3) -1.38255
(1,6,4): (1,5,4) -0.737152 (1,6,3) -2.09961 (1,6,5) 7.75812 (1,7,4) -5.14951
(1,6,5): (1,5,5) -5.87883 (1,6,4) -7.75812 (1,6,6) -1.03459 (1,7,5) -18.6808
(1,6,6): (1,5,6) -4.43874 (1,6,5) 1.03459 (1,6,7) 1.03560 (1,7,6) -31.1893
(1,6,7): (1,5,7) -5.87883 (1,6,6) -1.03560 (1,6,8) -7.75439 (1,7,7) -18.6815
(1,6,8): (1,5,8) -0.736988 (1,6,7) 7.75439 (1,6,9) -2.08493 (1,7,8) -5.15301
(1,6,9): (1,5,9) -5.039587E-02 (1,6,8) 2.08493 (1,6,10) -0.579624 (1,7,9) -1.39930
(1,6,10): (1,5,10) 9.618980E-03 (1,6,9) 0.579624 (1,7,10) -0.426879
(1,7,1): (1,6,1) 9.735405E-02 (1,7,2) -6.997956E-02 (1,8,1) -7.482615E-02
(1,7,2): (1,6,2) 0.349905 (1,7,1) 6.997956E-02 (1,7,3) -0.392918 (1,8,2) -0.267594
(1,7,3): (1,6,3) 1.38255 (1,7,2) 0.392918 (1,7,4) -1.58511 (1,8,3) -1.07906
(1,7,4): (1,6,4) 5.14951 (1,7,3) 1.58511 (1,7,5) -4.82633 (1,8,4) -4.17540
(1,7,5): (1,6,5) 18.6808 (1,7,4) 4.82633 (1,7,6) -11.6796 (1,8,5) -15.5305
(1,7,6): (1,6,6) 31.1893 (1,7,5) 11.6796 (1,7,7) 11.6800 (1,8,6) -58.2776
(1,7,7): (1,6,7) 18.6815 (1,7,6) -11.6800 (1,7,8) 4.82719 (1,8,7) -15.5311
(1,7,8): (1,6,8) 5.15301 (1,7,7) -4.82719 (1,7,9) 1.58633 (1,8,8) -4.17811
(1,7,9): (1,6,9) 1.39930 (1,7,8) -1.58633 (1,7,10) 0.386491 (1,8,9) -1.09197
(1,7,10): (1,6,10) 0.426879 (1,7,9) -0.386491 (1,8,10) -0.326203
(1,8,1): (1,7,1) 7.482615E-02 (1,8,2) -0.262738 (1,9,1) 5.419309E-02
(1,8,2): (1,7,2) 0.267594 (1,8,1) 0.262738 (1,8,3) -1.20541 (1,9,2) 0.226953
(1,8,3): (1,7,3) 1.07906 (1,8,2) 1.20541 (1,8,4) -4.69760 (1,9,3) 1.00357
(1,8,4): (1,7,4) 4.17540 (1,8,3) 4.69760 (1,8,5) -16.2641 (1,9,4) 4.07721
(1,8,5): (1,7,5) 15.5305 (1,8,4) 16.2641 (1,8,6) -52.1194 (1,9,5) 15.4570
(1,8,6): (1,7,6) 58.2776 (1,8,5) 52.1194 (1,8,7) 52.1191 (1,9,6) 58.1920
(1,8,7): (1,7,7) 15.5311 (1,8,6) -52.1191 (1,8,8) 16.2625 (1,9,7) 15.4572
(1,8,8): (1,7,8) 4.17811 (1,8,7) -16.2625 (1,8,9) 4.68821 (1,9,8) 4.07857
(1,8,9): (1,7,9) 1.09197 (1,8,8) -4.68821 (1,8,10) 1.15272 (1,9,9) 1.01173
(1,8,10): (1,7,10) 0.326203 (1,8,9) -1.15272 (1,9,10) 0.271313
(1,9,1): (1,8,1) -5.419309E-02 (1,9,2) -8.991676E-02 (1,10,1) 8.654358E-02
(1,9,2): (1,8,2) -0.226953 (1,9,1) 8.991676E-02 (1,9,3) -0.427220 (1,10,2) 0.329253
(1,9,3): (1,8,3) -1.00357 (1,9,2) 0.427220 (1,9,4) -1.60487 (1,10,3) 1.34766
(1,9,4): (1,8,4) -4.07721 (1,9,3) 1.60487 (1,9,5) -4.79312 (1,10,4) 5.12240
(1,9,5): (1,8,5) -15.4570 (1,9,4) 4.79312 (1,9,6) -11.6610 (1,10,5) 18.7551
(1,9,6): (1,8,6) -58.1920 (1,9,5) 11.6610 (1,9,7) 11.6610 (1,10,6) 31.2857
(1,9,7): (1,8,7) -15.4572 (1,9,6) -11.6610 (1,9,8) 4.79293 (1,10,7) 18.7557
(1,9,8): (1,8,8) -4.07857 (1,9,7) -4.79293 (1,9,9) 1.60265 (1,10,8) 5.12513
(1,9,9): (1,8,9) -1.01173 (1,9,8) -1.60265 (1,9,10) 0.411256 (1,10,9) 1.36185
(1,9,10): (1,8,10) -0.271313 (1,9,9) -0.411256 (1,10,10) 0.398755
(1,10,1): (1,9,1) -8.654358E-02 (1,10,2) 0.152447 (1,11,1) 6.274672E-03
(1,10,2): (1,9,2) -0.329253 (1,10,1) -0.152447 (1,10,3) 0.585395 (1,11,2) 8.426680E-03
(1,10,3): (1,9,3) -1.34766 (1,10,2) -0.585395 (1,10,4) 2.08837 (1,11,3) -5.755851E-02
(1,10,4): (1,9,4) -5.12240 (1,10,3) -2.08837 (1,10,5) 7.88717 (1,11,4) -0.785359
(1,10,5): (1,9,5) -18.7551 (1,10,4) -7.88717 (1,10,6) -1.00692 (1,11,5) -6.05846
(1,10,6): (1,9,6) -31.2857 (1,10,5) 1.00692 (1,10,7) 1.00742 (1,11,6) -4.65002
(1,10,7): (1,9,7) -18.7557 (1,10,6) -1.00742 (1,10,8) -7.88507 (1,11,7) -6.05841
(1,10,8): (1,9,8) -5.12513 (1,10,7) 7.88507 (1,10,9) -2.07897 (1,11,8) -0.785032
(1,10,9): (1,9,9) -1.36185 (1,10,8) 2.07897 (1,10,10) -0.545820 (1,11,9) -5.617706E-02
(1,10,10): (1,9,10) -0.398755 (1,10,9) 0.545820 (1,11,10) 1.301936E-02
(1,11,1): (1,10,1) -6.274672E-03 (1,11,2) 0.154602 (1,12,1) -3.005933E-02
(1,11,2): (1,10,2) -8.426680E-03 (1,11,1) -0.154602 (1,11,3) 0.519067 (1,12,2) -0.102387
(1,11,3): (1,10,3) 5.755851E-02 (1,11,2) -0.519067 (1,11,4) 1.35162 (1,12,3) -0.367728
(1,11,4): (1,10,4) 0.785359 (1,11,3) -1.35162 (1,11,5) 2.53520 (1,12,4) -1.15056
(1,11,5): (1,10,5) 6.05846 (1,11,4) -2.53520 (1,11,6) 0.345442 (1,12,5) -2.86721
(1,11,6): (1,10,6) 4.65002 (1,11,5) -0.345442 (1,11,7) -0.344900 (1,12,6) -2.98126
(1,11,7): (1,10,7) 6.05841 (1,11,6) 0.344900 (1,11,8) -2.53291 (1,12,7) -2.86742
(1,11,8): (1,10,8) 0.785032 (1,11,7) 2.53291 (1,11,9) -1.34121 (1,12,8) -1.15164
(1,11,9): (1,10,9) 5.617706E-02 (1,11,8) 1.34121 (1,11,10) -0.476292 (1,12,9) -0.372974
(1,11,10): (1,10,10) -1.301936E-02 (1,11,9) 0.476292 (1,12,10) -0.126033
(1,12,1): (1,11,1) 3.005933E-02 (1,12,2) 8.223638E-02 (1,13,1) -2.437341E-02
(1,12,2): (1,11,2) 0.102387 (1,12,1) -8.223638E-02 (1,12,3) 0.253331 (1,13,2) -7.489510E-02
(1,12,3): (1,11,3) 0.367728 (1,12,2) -0.253331 (1,12,4) 0.567285 (1,13,3) -0.236176
(1,12,4): (1,11,4) 1.15056 (1,12,3) -0.567285 (1,12,5) 0.823682 (1,13,4) -0.615037
(1,12,5): (1,11,5) 2.86721 (1,12,4) -0.823682 (1,12,6) 0.233916 (1,13,5) -1.19705
(1,12,6): (1,11,6) 2.98126 (1,12,5) -0.233916 (1,12,7) -0.233580 (1,13,6) -1.34600
(1,12,7): (1,11,7) 2.86742 (1,12,6) 0.233580 (1,12,8) -0.822293 (1,13,7) -1.19723
(1,12,8): (1,11,8) 1.15164 (1,12,7) 0.822293 (1,12,9) -0.561144 (1,13,8) -0.615999
(1,12,9): (1,11,9) 0.372974 (1,12,8) 0.561144 (1,12,10) -0.229101 (1,13,9) -0.240655
(1,12,10): (1,11,10) 0.126033 (1,12,9) 0.229101 (1,13,10) -9.370820E-02
(1,13,1): (1,12,1) 2.437341E-02 (1,13,2) 3.171099E-02 (1,14,1) -1.157620E-02
(1,13,2): (1,12,2) 7.489510E-02 (1,13,1) -3.171099E-02 (1,13,3) 9.202232E-02 (1,14,2) -3.334240E-02
(1,13,3): (1,12,3) 0.236176 (1,13,2) -9.202232E-02 (1,13,4) 0.188602 (1,14,3) -9.779652E-02
(1,13,4): (1,12,4) 0.615037 (1,13,3) -0.188602 (1,13,5) 0.243754 (1,14,4) -0.233260
(1,13,5): (1,12,5) 1.19705 (1,13,4) -0.243754 (1,13,6) 8.652031E-02 (1,14,5) -0.412861
(1,13,6): (1,12,6) 1.34600 (1,13,5) -8.652031E-02 (1,13,7) -8.636988E-02 (1,14,6) -0.474534
(1,13,7): (1,12,7) 1.19723 (1,13,6) 8.636988E-02 (1,13,8) -0.243147 (1,14,7) -0.412957
(1,13,8): (1,12,8) 0.615999 (1,13,7) 0.243147 (1,13,9) -0.186002 (1,14,8) -0.233748
(1,13,9): (1,12,9) 0.240655 (1,13,8) 0.186002 (1,13,10) -8.217099E-02 (1,14,9) -9.999334E-02
(1,13,10): (1,12,10) 9.370820E-02 (1,13,9) 8.217099E-02 (1,14,10) -4.214770E-02
(1,14,1): (1,13,1) 1.157620E-02 (1,14,2) 9.945137E-03 (1,15,1) -3.863422E-03
(1,14,2): (1,13,2) 3.334240E-02 (1,14,1) -9.945137E-03 (1,14,3) 2.757191E-02 (1,15,2) -1.063201E-02
(1,14,3): (1,13,3) 9.779652E-02 (1,14,2) -2.757191E-02 (1,14,4) 5.319803E-02 (1,15,3) -2.974290E-02
(1,14,4): (1,13,4) 0.233260 (1,14,3) -5.319803E-02 (1,14,5) 6.445310E-02 (1,15,4) -6.740103E-02
(1,14,5): (1,13,5) 0.412861 (1,14,4) -6.445310E-02 (1,14,6) 2.508136E-02 (1,15,5) -0.113876
(1,14,6): (1,13,6) 0.474534 (1,14,5) -2.508136E-02 (1,14,7) -2.502668E-02 (1,15,6) -0.131642
(1,14,7): (1,13,7) 0.412957 (1,14,6) 2.502668E-02 (1,14,8) -6.423872E-02 (1,15,7) -0.113911
(1,14,8): (1,13,8) 0.233748 (1,14,7) 6.423872E-02 (1,14,9) -5.230997E-02 (1,15,8) -6.757246E-02
(1,14,9): (1,13,9) 9.999334E-02 (1,14,8) 5.230997E-02 (1,14,10) -2.433563E-02 (1,15,9) -3.049339E-02
(1,14,10): (1,13,10) 4.214770E-02 (1,14,9) 2.433563E-02 (1,15,10) -1.353702E-02
(1,15,1): (1,14,1) 3.863422E-03 (1,15,2) 3.176593E-03
(1,15,2): (1,14,2) 1.063201E-02 (1,15,1) -3.176593E-03 (1,15,3) 8.461437E-03
(1,15,3): (1,14,3) 2.974290E-02 (1,15,2) -8.461437E-03 (1,15,4) 1.554524E-02
(1,15,4): (1,14,4) 6.740103E-02 (1,15,3) -1.554524E-02 (1,15,5) 1.800079E-02
(1,15,5): (1,14,5) 0.113876 (1,15,4) -1.800079E-02 (1,15,6) 7.333949E-03
(1,15,6): (1,14,6) 0.131642 (1,15,5) -7.333949E-03 (1,15,7) -7.313568E-03
(1,15,7): (1,14,7) 0.113911 (1,15,6) 7.313568E-03 (1,15,8) -1.792355E-02
(1,15,8): (1,14,8) 6.757246E-02 (1,15,7) 1.792355E-02 (1,15,9) -1.523655E-02
(1,15,9): (1,14,9) 3.049339E-02 (1,15,8) 1.523655E-02 (1,15,10) -7.380295E-03
(1,15,10): (1,14,10) 1.353702E-02 (1,15,9) 7.380295E-03

 WEL PACKAGE (WEL-1) FLOW RATES   PERIOD      2   STEP       32
 ----------------------------------------------------------------------------------------
   NUMBER   CELLID                    RATE       NAME                                    
 ----------------------------------------------------------------------------------------
     1      (1,8,6)              -221.55875      WEL                                     
 ----------------------------------------------------------------------------------------




 DRN PACKAGE (DRN-0) FLOW RATES   PERIOD      2   STEP       32
 ----------------------------------------------------------------------------------------
   NUMBER   CELLID                    RATE       NAME                                    
 ----------------------------------------------------------------------------------------
     1      (1,1,1)               0.0000000      SURF                                    
     2      (1,1,2)               0.0000000      SURF                                    
     3      (1,1,3)               0.0000000      SURF                                    
     4      (1,1,4)               0.0000000      SURF                                    
     5      (1,1,5)               0.0000000      SURF                                    
     6      (1,1,6)               0.0000000      SURF                                    
     7      (1,1,7)               0.0000000      SURF                                    
     8      (1,1,8)               0.0000000      SURF                                    
     9      (1,1,9)               0.0000000      SURF                                    
     10     (1,1,10)              0.0000000      SURF                                    
     11     (1,2,1)               0.0000000      SURF                                    
     12     (1,2,2)               0.0000000      SURF                                    
     13     (1,2,3)               0.0000000      SURF                                    
     14     (1,2,4)               0.0000000      SURF                                    
     15     (1,2,5)               0.0000000      SURF                                    
     16     (1,2,6)               0.0000000      SURF                                    
     17     (1,2,7)               0.0000000      SURF                                    
     18     (1,2,8)               0.0000000      SURF                                    
     19     (1,2,9)               0.0000000      SURF                                    
     20     (1,2,10)              0.0000000      SURF                                    
     21     (1,3,1)               0.0000000      SURF                                    
     22     (1,3,2)               0.0000000      SURF                                    
     23     (1,3,3)               0.0000000      SURF                                    
     24     (1,3,4)               0.0000000      SURF                                    
     25     (1,3,5)               0.0000000      SURF                                    
     26     (1,3,6)               0.0000000      SURF                                    
     27     (1,3,7)               0.0000000      SURF                                    
     28     (1,3,8)               0.0000000      SURF                                    
     29     (1,3,9)               0.0000000      SURF                                    
     30     (1,3,10)              0.0000000      SURF                                    
     31     (1,4,1)               0.0000000      SURF                                    
     32     (1,4,2)               0.0000000      SURF                                    
     33     (1,4,3)               0.0000000      SURF                                    
     34     (1,4,4)               0.0000000      SURF                                    
     35     (1,4,5)               0.0000000      SURF                                    
     36     (1,4,6)               0.0000000      SURF                                    
     37     (1,4,7)               0.0000000      SURF                                    
     38     (1,4,8)               0.0000000      SURF                                    
     39     (1,4,9)               0.0000000      SURF                                    
     40     (1,4,10)              0.0000000      SURF                                    
     41     (1,5,1)               0.0000000      SURF                                    
     42     (1,5,2)               0.0000000      SURF                                    
     43     (1,5,3)               0.0000000      SURF                                    
     44     (1,5,4)               0.0000000      SURF                                    
     45     (1,5,5)               0.0000000      SURF                                    
     46     (1,5,6)               0.0000000      SURF                                    
     47     (1,5,7)               0.0000000      SURF                                    
     48     (1,5,8)               0.0000000      SURF                                    
     49     (1,5,9)               0.0000000      SURF                                    
     50     (1,5,10)              0.0000000      SURF                                    
     51     (1,6,1)               0.0000000      SURF                                    
     52     (1,6,2)               0.0000000      SURF                                    
     53     (1,6,3)               0.0000000      SURF                                    
     54     (1,6,4)               0.0000000      SURF                                    
     55     (1,6,5)               0.0000000      SURF                                    
     56     (1,6,6)               0.0000000      SURF                                    
     57     (1,6,7)              -8.49831849E-09 SURF                                    
     58     (1,6,8)               0.0000000      SURF                                    
     59     (1,6,9)               0.0000000      SURF                                    
     60     (1,6,10)              0.0000000      SURF                                    
     61     (1,7,1)               0.0000000      SURF                                    
     62     (1,7,2)               0.0000000      SURF                                    
     63     (1,7,3)               0.0000000      SURF                                    
     64     (1,7,4)               0.0000000      SURF                                    
     65     (1,7,5)               0.0000000      SURF                                    
     66     (1,7,6)               0.0000000      SURF                                    
     67     (1,7,7)               0.0000000      SURF                                    
     68     (1,7,8)               0.0000000      SURF                                    
     69     (1,7,9)               0.0000000      SURF                                    
     70     (1,7,10)              0.0000000      SURF                                    
     71     (1,8,1)               0.0000000      SURF                                    
     72     (1,8,2)               0.0000000      SURF                                    
     73     (1,8,3)               0.0000000      SURF                                    
     74     (1,8,4)               0.0000000      SURF                                    
     75     (1,8,5)               0.0000000      SURF                                    
     76     (1,8,6)               0.0000000      SURF                                    
     77     (1,8,7)               0.0000000      SURF                                    
     78     (1,8,8)               0.0000000      SURF                                    
     79     (1,8,9)               0.0000000      SURF                                    
     80     (1,8,10)              0.0000000      SURF                                    
     81     (1,9,1)               0.0000000      SURF                                    
     82     (1,9,2)               0.0000000      SURF                                    
     83     (1,9,3)               0.0000000      SURF                                    
     84     (1,9,4)               0.0000000      SURF                                    
     85     (1,9,5)               0.0000000      SURF                                    
     86     (1,9,6)               0.0000000      SURF                                    
     87     (1,9,7)               0.0000000      SURF                                    
     88     (1,9,8)               0.0000000      SURF                                    
     89     (1,9,9)               0.0000000      SURF                                    
     90     (1,9,10)              0.0000000      SURF                                    
     91     (1,10,1)              0.0000000      SURF                                    
     92     (1,10,2)              0.0000000      SURF                                    
     93     (1,10,3)              0.0000000      SURF                                    
     94     (1,10,4)              0.0000000      SURF                                    
     95     (1,10,5)              0.0000000      SURF                                    
     96     (1,10,6)              0.0000000      SURF                                    
     97     (1,10,7)             -3.88710760E-07 SURF                                    
     98     (1,10,8)              0.0000000      SURF                                    
     99     (1,10,9)              0.0000000      SURF                                    
    100     (1,10,10)             0.0000000      SURF                                    
    101     (1,11,1)              0.0000000      SURF                                    
    102     (1,11,2)              0.0000000      SURF                                    
    103     (1,11,3)              0.0000000      SURF                                    
    104     (1,11,4)              0.0000000      SURF                                    
    105     (1,11,5)              0.0000000      SURF                                    
    106     (1,11,6)              0.0000000      SURF                                    
    107     (1,11,7)              0.0000000      SURF                                    
    108     (1,11,8)              0.0000000      SURF                                    
    109     (1,11,9)              0.0000000      SURF                                    
    110     (1,11,10)             0.0000000      SURF                                    
    111     (1,12,1)              0.0000000      SURF                                    
    112     (1,12,2)              0.0000000      SURF                                    
    113     (1,12,3)              0.0000000      SURF                                    
    114     (1,12,4)              0.0000000      SURF                                    
    115     (1,12,5)              0.0000000      SURF                                    
    116     (1,12,6)              0.0000000      SURF                                    
    117     (1,12,7)              0.0000000      SURF                                    
    118     (1,12,8)              0.0000000      SURF                                    
    119     (1,12,9)              0.0000000      SURF                                    
    120     (1,12,10)             0.0000000      SURF                                    
    121     (1,13,1)              0.0000000      SURF                                    
    122     (1,13,2)              0.0000000      SURF                                    
    123     (1,13,3)              0.0000000      SURF                                    
    124     (1,13,4)              0.0000000      SURF                                    
    125     (1,13,5)              0.0000000      SURF                                    
    126     (1,13,6)              0.0000000      SURF                                    
    127     (1,13,7)              0.0000000      SURF                                    
    128     (1,13,8)              0.0000000      SURF                                    
    129     (1,13,9)              0.0000000      SURF                                    
    130     (1,13,10)             0.0000000      SURF                                    
    131     (1,14,1)              0.0000000      SURF                                    
    132     (1,14,2)              0.0000000      SURF                                    
    133     (1,14,3)              0.0000000      SURF                                    
    134     (1,14,4)              0.0000000      SURF                                    
    135     (1,14,5)              0.0000000      SURF                                    
    136     (1,14,6)              0.0000000      SURF                                    
    137     (1,14,7)              0.0000000      SURF                                    
    138     (1,14,8)              0.0000000      SURF                                    
    139     (1,14,9)              0.0000000      SURF                                    
    140     (1,14,10)             0.0000000      SURF                                    
    141     (1,15,1)              0.0000000      SURF                                    
    142     (1,15,2)              0.0000000      SURF                                    
    143     (1,15,3)              0.0000000      SURF                                    
    144     (1,15,4)              0.0000000      SURF                                    
    145     (1,15,5)              0.0000000      SURF                                    
    146     (1,15,6)              0.0000000      SURF                                    
    147     (1,15,7)              0.0000000      SURF                                    
    148     (1,15,8)              0.0000000      SURF                                    
    149     (1,15,9)              0.0000000      SURF                                    
    150     (1,15,10)             0.0000000      SURF                                    
 ----------------------------------------------------------------------------------------




 API PACKAGE (MAR) FLOW RATES   PERIOD      2   STEP       32
 -----------------------------------------------
   NUMBER   CELLID                    RATE      
 -----------------------------------------------
     1      (1,6,5)               33.350374     
     2      (1,6,6)               33.350374     
     3      (1,6,7)               33.350374     
     4      (1,10,5)              33.706566     
     5      (1,10,6)              33.706566     
     6      (1,10,7)              33.706566     
 -----------------------------------------------



1
  HEAD IN LAYER   1 AT END OF TIME STEP  32 IN STRESS PERIOD    2
  ---------------------------------------------------------------------------

            1           2           3           4           5           6           7           8           9          10
 ........................................................................................................................
   1   3.6336E-04  8.6189E-04  2.1154E-03  4.2846E-03  6.6901E-03  7.6826E-03  6.6946E-03  4.3046E-03  2.1924E-03  1.1227E-03
   2   9.7528E-04  2.4062E-03  6.1370E-03  1.2894E-02  2.0711E-02  2.3806E-02  2.0722E-02  1.2945E-02  6.3393E-03  3.1148E-03
   3   2.6977E-03  6.9318E-03  1.8444E-02  4.0517E-02  6.7670E-02  7.7514E-02  6.7699E-02  4.0652E-02  1.8992E-02  8.9139E-03
   4   6.0951E-03  1.6381E-02  4.5917E-02  0.1075      0.1922      0.2168      0.1923      0.1078      4.7125E-02  2.0905E-02
   5   1.0106E-02  2.8504E-02  8.5591E-02  0.2230      0.4655      0.4988      0.4656      0.2235      8.7545E-02  3.6066E-02
   6   9.6979E-03  2.7867E-02  9.0667E-02  0.2946      0.9999      0.9059       1.000      0.2951      9.2538E-02  3.5107E-02
   7  -2.8089E-05 -7.0261E-03 -4.6345E-02 -0.2056     -0.6984      -1.954     -0.6983     -0.2055     -4.6109E-02 -7.4311E-03
   8  -7.5107E-03 -3.3804E-02 -0.1548     -0.6319      -2.368      -9.197      -2.368     -0.6321     -0.1558     -4.0076E-02
   9  -2.0903E-03 -1.1084E-02 -5.3853E-02 -0.2152     -0.7051      -1.960     -0.7051     -0.2152     -5.4088E-02 -1.2909E-02
  10   6.5584E-03  2.1770E-02  7.9846E-02  0.2829       1.000      0.9084       1.000      0.2832      8.1003E-02  2.6859E-02
  11   7.1854E-03  2.2611E-02  7.4135E-02  0.2066      0.4492      0.4821      0.4492      0.2068      7.5430E-02  2.8158E-02
  12   4.1816E-03  1.2395E-02  3.7633E-02  9.3834E-02  0.1748      0.1977      0.1748      9.4004E-02  3.8412E-02  1.5590E-02
  13   1.7453E-03  4.9149E-03  1.4104E-02  3.2902E-02  5.7139E-02  6.5735E-02  5.7154E-02  3.2978E-02  1.4439E-02  6.2335E-03
  14   5.8790E-04  1.5823E-03  4.3383E-03  9.6529E-03  1.6088E-02  1.8591E-02  1.6093E-02  9.6798E-03  4.4539E-03  2.0214E-03
  15   2.0158E-04  5.1923E-04  1.3653E-03  2.9193E-03  4.7186E-03  5.4515E-03  4.7206E-03  2.9291E-03  1.4059E-03  6.6795E-04

 HEAD WILL BE SAVED ON UNIT 1100 AT END OF TIME STEP   32, STRESS PERIOD    2


  VOLUME BUDGET FOR ENTIRE MODEL AT END OF TIME STEP   32, STRESS PERIOD   2
  ---------------------------------------------------------------------------------------------------

     CUMULATIVE VOLUME      L**3       RATES FOR THIS TIME STEP      L**3/T          PACKAGE NAME    
     ------------------                 ------------------------                     ----------------

           IN:                                      IN:
           ---                                      ---
              STO-SS =          18.4799                STO-SS =       2.5718E-02     STORAGE                          
              STO-SY =       47564.7670                STO-SY =          57.5419     STORAGE                          
                 WEL =           0.0000                   WEL =           0.0000     WEL-1                            
                 DRN =           0.0000                   DRN =           0.0000     DRN-0                            
                 API =       64030.1065                   API =         201.1708     MAR                              
                 CHD =       2.0279E-08                   CHD =           0.0000     CHD_0                            

            TOTAL IN =      111613.3534              TOTAL IN =         258.7384

          OUT:                                     OUT:
          ----                                     ----
              STO-SS =          15.0596                STO-SS =       1.8849E-02     STORAGE                          
              STO-SY =       29292.1826                STO-SY =          37.1608     STORAGE                          
                 WEL =       82306.1111                   WEL =         221.5587     WEL-1                            
                 DRN =       9.8857E-05                   DRN =       3.9721E-07     DRN-0                            
                 API =           0.0000                   API =           0.0000     MAR                              
                 CHD =       2.0705E-08                   CHD =           0.0000     CHD_0                            

           TOTAL OUT =      111613.3534             TOTAL OUT =         258.7384

            IN - OUT =      -7.5532E-07              IN - OUT =      -3.0680E-09

 PERCENT DISCREPANCY =          -0.00     PERCENT DISCREPANCY =          -0.00




         TIME SUMMARY AT END OF TIME STEP   32 IN STRESS PERIOD    2
                    SECONDS     MINUTES      HOURS       DAYS        YEARS
                    -----------------------------------------------------------
   TIME STEP LENGTH 8.64000E+05  14400.      240.00      10.000     2.73785E-02
 STRESS PERIOD TIME 2.76480E+07 4.60800E+05  7680.0      320.00     0.87611    
         TOTAL TIME 2.77344E+07 4.62240E+05  7704.0      321.00     0.87885    


end timestep


start timestep kper="2" kstp="33" mode="normal"

 UBDSV1 SAVING           STO-SS ON UNIT   1099 AT TIME STEP     33, STRESS PERIOD      2
 UBDSV1 SAVING           STO-SY ON UNIT   1099 AT TIME STEP     33, STRESS PERIOD      2
 UBDSV1 SAVING     FLOW-JA-FACE ON UNIT   1099 AT TIME STEP     33, STRESS PERIOD      2
 UBDSV06 SAVING       DATA-SPDIS IN MODEL GWF              PACKAGE NPF             CONNECTED TO MODEL GWF              PACKAGE NPF              ON UNIT   1099 AT TIME STEP     33, STRESS PERIOD      2
 UBDSV06 SAVING              WEL IN MODEL GWF              PACKAGE GWF             CONNECTED TO MODEL GWF              PACKAGE WEL-1            ON UNIT   1099 AT TIME STEP     33, STRESS PERIOD      2
 UBDSV06 SAVING              DRN IN MODEL GWF              PACKAGE GWF             CONNECTED TO MODEL GWF              PACKAGE DRN-0            ON UNIT   1099 AT TIME STEP     33, STRESS PERIOD      2
 UBDSV06 SAVING              API IN MODEL GWF              PACKAGE GWF             CONNECTED TO MODEL GWF              PACKAGE MAR              ON UNIT   1099 AT TIME STEP     33, STRESS PERIOD      2
 UBDSV06 SAVING              CHD IN MODEL GWF              PACKAGE GWF             CONNECTED TO MODEL GWF              PACKAGE CHD_0            ON UNIT   1099 AT TIME STEP     33, STRESS PERIOD      2

    CALCULATED INTERCELL FLOW FOR PERIOD 2 STEP 33
(1,1,1): (1,1,2) 5.625856E-03 (1,2,1) 6.886510E-03
(1,1,2): (1,1,1) -5.625856E-03 (1,1,3) 1.393818E-02 (1,2,2) 1.700650E-02
(1,1,3): (1,1,2) -1.393818E-02 (1,1,4) 2.374570E-02 (1,2,3) 4.351420E-02
(1,1,4): (1,1,3) -2.374570E-02 (1,1,5) 2.602040E-02 (1,2,4) 9.191648E-02
(1,1,5): (1,1,4) -2.602040E-02 (1,1,6) 1.072671E-02 (1,2,5) 0.148432
(1,1,6): (1,1,5) -1.072671E-02 (1,1,7) -1.067123E-02 (1,2,6) 0.170397
(1,1,7): (1,1,6) 1.067123E-02 (1,1,8) -2.583357E-02 (1,2,7) 0.148512
(1,1,8): (1,1,7) 2.583357E-02 (1,1,9) -2.307419E-02 (1,2,8) 9.227937E-02
(1,1,9): (1,1,8) 2.307419E-02 (1,1,10) -1.181733E-02 (1,2,9) 4.494580E-02
(1,1,10): (1,1,9) 1.181733E-02 (1,2,10) 2.201200E-02
(1,2,1): (1,1,1) -6.886510E-03 (1,2,2) 1.574572E-02 (1,3,1) 1.899176E-02
(1,2,2): (1,1,2) -1.700650E-02 (1,2,1) -1.574572E-02 (1,2,3) 4.044507E-02 (1,3,2) 4.882719E-02
(1,2,3): (1,1,3) -4.351420E-02 (1,2,2) -4.044507E-02 (1,2,4) 7.213843E-02 (1,3,3) 0.130562
(1,2,4): (1,1,4) -9.191648E-02 (1,2,3) -7.213843E-02 (1,2,5) 8.249909E-02 (1,3,4) 0.289653
(1,2,5): (1,1,5) -0.148432 (1,2,4) -8.249909E-02 (1,2,6) 3.266175E-02 (1,3,5) 0.489355
(1,2,6): (1,1,6) -0.170397 (1,2,5) -3.266175E-02 (1,2,7) -3.252617E-02 (1,3,6) 0.559231
(1,2,7): (1,1,7) -0.148512 (1,2,6) 3.252617E-02 (1,2,8) -8.202943E-02 (1,3,7) 0.489564
(1,2,8): (1,1,8) -9.227937E-02 (1,2,7) 8.202943E-02 (1,2,9) -7.039745E-02 (1,3,8) 0.290615
(1,2,9): (1,1,9) -4.494580E-02 (1,2,8) 7.039745E-02 (1,2,10) -3.474879E-02 (1,3,9) 0.134439
(1,2,10): (1,1,10) -2.201200E-02 (1,2,9) 3.474879E-02 (1,3,10) 6.278728E-02
(1,3,1): (1,2,1) -1.899176E-02 (1,3,2) 4.558017E-02 (1,4,1) 3.652026E-02
(1,3,2): (1,2,2) -4.882719E-02 (1,3,1) -4.558017E-02 (1,3,3) 0.122174 (1,4,2) 9.946676E-02
(1,3,3): (1,2,3) -0.130562 (1,3,2) -0.122174 (1,3,4) 0.231137 (1,4,3) 0.285143
(1,3,4): (1,2,4) -0.289653 (1,3,3) -0.231137 (1,3,5) 0.281793 (1,4,4) 0.691022
(1,3,5): (1,2,5) -0.489355 (1,3,4) -0.281793 (1,3,6) 0.102226 (1,4,5) 1.28677
(1,3,6): (1,2,6) -0.559231 (1,3,5) -0.102226 (1,3,7) -0.101881 (1,4,6) 1.44053
(1,3,7): (1,2,7) -0.489564 (1,3,6) 0.101881 (1,3,8) -0.280571 (1,4,7) 1.28715
(1,3,8): (1,2,8) -0.290615 (1,3,7) 0.280571 (1,3,9) -0.226474 (1,4,8) 0.692781
(1,3,9): (1,2,9) -0.134439 (1,3,8) 0.226474 (1,3,10) -0.106381 (1,4,9) 0.292411
(1,3,10): (1,2,10) -6.278728E-02 (1,3,9) 0.106381 (1,4,10) 0.126688
(1,4,1): (1,3,1) -3.652026E-02 (1,4,2) 0.108532 (1,5,1) 4.156352E-02
(1,4,2): (1,3,2) -9.946676E-02 (1,4,1) -0.108532 (1,4,3) 0.307891 (1,5,2) 0.123313
(1,4,3): (1,3,3) -0.285143 (1,4,2) -0.307891 (1,4,4) 0.636802 (1,5,3) 0.400830
(1,4,4): (1,3,4) -0.691022 (1,4,3) -0.636802 (1,4,5) 0.875207 (1,5,4) 1.17720
(1,4,5): (1,3,5) -1.28677 (1,4,4) -0.875207 (1,4,6) 0.254270 (1,5,5) 2.85232
(1,4,6): (1,3,6) -1.44053 (1,4,5) -0.254270 (1,4,7) -0.253547 (1,5,6) 2.94859
(1,4,7): (1,3,7) -1.28715 (1,4,6) 0.253547 (1,4,8) -0.872596 (1,5,7) 2.85274
(1,4,8): (1,3,8) -0.692781 (1,4,7) 0.872596 (1,4,9) -0.626586 (1,5,8) 1.17908
(1,4,9): (1,3,9) -0.292411 (1,4,8) 0.626586 (1,4,10) -0.272069 (1,5,9) 0.408807
(1,4,10): (1,3,10) -0.126688 (1,4,9) 0.272069 (1,5,10) 0.154760
(1,5,1): (1,4,1) -4.156352E-02 (1,5,2) 0.190337 (1,6,1) -6.916710E-03
(1,5,2): (1,4,2) -0.123313 (1,5,1) -0.190337 (1,5,3) 0.585912 (1,6,2) -1.461036E-02
(1,5,3): (1,4,3) -0.400830 (1,5,2) -0.585912 (1,5,4) 1.41492 (1,6,3) 2.825324E-02
(1,5,4): (1,4,4) -1.17720 (1,5,3) -1.41492 (1,5,5) 2.54572 (1,6,4) 0.690837
(1,5,5): (1,4,5) -2.85232 (1,5,4) -2.54572 (1,5,6) 0.348481 (1,6,5) 5.83551
(1,5,6): (1,4,6) -2.94859 (1,5,5) -0.348481 (1,5,7) -0.347348 (1,6,6) 4.38975
(1,5,7): (1,4,7) -2.85274 (1,5,6) 0.347348 (1,5,8) -2.54158 (1,6,7) 5.83549
(1,5,8): (1,4,8) -1.17908 (1,5,7) 2.54158 (1,5,9) -1.39846 (1,6,8) 0.690554
(1,5,9): (1,4,9) -0.408807 (1,5,8) 1.39846 (1,5,10) -0.526409 (1,6,9) 2.689172E-02
(1,5,10): (1,4,10) -0.154760 (1,5,9) 0.526409 (1,6,10) -2.002986E-02
(1,6,1): (1,5,1) 6.916710E-03 (1,6,2) 0.182630 (1,7,1) -0.104360
(1,6,2): (1,5,2) 1.461036E-02 (1,6,1) -0.182630 (1,6,3) 0.629026 (1,7,2) -0.367408
(1,6,3): (1,5,3) -2.825324E-02 (1,6,2) -0.629026 (1,6,4) 2.08623 (1,7,3) -1.42796
(1,6,4): (1,5,4) -0.690837 (1,6,3) -2.08623 (1,6,5) 7.77197 (1,7,4) -5.24907
(1,6,5): (1,5,5) -5.83551 (1,6,4) -7.77197 (1,6,6) -1.04262 (1,7,5) -18.8704
(1,6,6): (1,5,6) -4.38975 (1,6,5) 1.04262 (1,6,7) 1.04375 (1,7,6) -31.3632
(1,6,7): (1,5,7) -5.83549 (1,6,6) -1.04375 (1,6,8) -7.76793 (1,7,7) -18.8713
(1,6,8): (1,5,8) -0.690554 (1,6,7) 7.76793 (1,6,9) -2.07076 (1,7,8) -5.25295
(1,6,9): (1,5,9) -2.689172E-02 (1,6,8) 2.07076 (1,6,10) -0.573579 (1,7,9) -1.44617
(1,6,10): (1,5,10) 2.002986E-02 (1,6,9) 0.573579 (1,7,10) -0.449494
(1,7,1): (1,6,1) 0.104360 (1,7,2) -7.999871E-02 (1,8,1) -7.914924E-02
(1,7,2): (1,6,2) 0.367408 (1,7,1) 7.999871E-02 (1,7,3) -0.425031 (1,8,2) -0.277691
(1,7,3): (1,6,3) 1.42796 (1,7,2) 0.425031 (1,7,4) -1.64915 (1,8,3) -1.10326
(1,7,4): (1,6,4) 5.24907 (1,7,3) 1.64915 (1,7,5) -4.88203 (1,8,4) -4.21816
(1,7,5): (1,6,5) 18.8704 (1,7,4) 4.88203 (1,7,6) -11.6545 (1,8,5) -15.5500
(1,7,6): (1,6,6) 31.3632 (1,7,5) 11.6545 (1,7,7) 11.6549 (1,8,6) -58.0506
(1,7,7): (1,6,7) 18.8713 (1,7,6) -11.6549 (1,7,8) 4.88291 (1,8,7) -15.5506
(1,7,8): (1,6,8) 5.25295 (1,7,7) -4.88291 (1,7,9) 1.65007 (1,8,8) -4.22113
(1,7,9): (1,6,9) 1.44617 (1,7,8) -1.65007 (1,7,10) 0.416315 (1,8,9) -1.11710
(1,7,10): (1,6,10) 0.449494 (1,7,9) -0.416315 (1,8,10) -0.339357
(1,8,1): (1,7,1) 7.914924E-02 (1,8,2) -0.278542 (1,9,1) 5.805683E-02
(1,8,2): (1,7,2) 0.277691 (1,8,1) 0.278542 (1,8,3) -1.25183 (1,9,2) 0.237389
(1,8,3): (1,7,3) 1.10326 (1,8,2) 1.25183 (1,8,4) -4.78163 (1,9,3) 1.03048
(1,8,4): (1,7,4) 4.21816 (1,8,3) 4.78163 (1,8,5) -16.2983 (1,9,4) 4.12590
(1,8,5): (1,7,5) 15.5500 (1,8,4) 16.2983 (1,8,6) -51.8243 (1,9,5) 15.4831
(1,8,6): (1,7,6) 58.0506 (1,8,5) 51.8243 (1,8,7) 51.8240 (1,9,6) 57.9748
(1,8,7): (1,7,7) 15.5506 (1,8,6) -51.8240 (1,8,8) 16.2965 (1,9,7) 15.4834
(1,8,8): (1,7,8) 4.22113 (1,8,7) -16.2965 (1,8,9) 4.77119 (1,9,8) 4.12742
(1,8,9): (1,7,9) 1.11710 (1,8,8) -4.77119 (1,8,10) 1.19466 (1,9,9) 1.03939
(1,8,10): (1,7,10) 0.339357 (1,8,9) -1.19466 (1,9,10) 0.284664
(1,9,1): (1,8,1) -5.805683E-02 (1,9,2) -9.913612E-02 (1,10,1) 9.322362E-02
(1,9,2): (1,8,2) -0.237389 (1,9,1) 9.913612E-02 (1,9,3) -0.456977 (1,10,2) 0.346680
(1,9,3): (1,8,3) -1.03048 (1,9,2) 0.456977 (1,9,4) -1.66586 (1,10,3) 1.39357
(1,9,4): (1,8,4) -4.12590 (1,9,3) 1.66586 (1,9,5) -4.84885 (1,10,4) 5.22194
(1,9,5): (1,8,5) -15.4831 (1,9,4) 4.84885 (1,9,6) -11.6363 (1,10,5) 18.9382
(1,9,6): (1,8,6) -57.9748 (1,9,5) 11.6363 (1,9,7) 11.6363 (1,10,6) 31.4521
(1,9,7): (1,8,7) -15.4834 (1,9,6) -11.6363 (1,9,8) 4.84861 (1,10,7) 18.9388
(1,9,8): (1,8,8) -4.12742 (1,9,7) -4.84861 (1,9,9) 1.66322 (1,10,8) 5.22499
(1,9,9): (1,8,9) -1.03939 (1,9,8) -1.66322 (1,9,10) 0.438764 (1,10,9) 1.40910
(1,9,10): (1,8,10) -0.284664 (1,9,9) -0.438764 (1,10,10) 0.421153
(1,10,1): (1,9,1) -9.322362E-02 (1,10,2) 0.153932 (1,11,1) 8.837600E-03
(1,10,2): (1,9,2) -0.346680 (1,10,1) -0.153932 (1,10,3) 0.583679 (1,11,2) 1.598474E-02
(1,10,3): (1,9,3) -1.39357 (1,10,2) -0.583679 (1,10,4) 2.07756 (1,11,3) -3.567369E-02
(1,10,4): (1,9,4) -5.22194 (1,10,3) -2.07756 (1,10,5) 7.89496 (1,11,4) -0.738518
(1,10,5): (1,9,5) -18.9382 (1,10,4) -7.89496 (1,10,6) -1.01548 (1,11,5) -6.00657
(1,10,6): (1,9,6) -31.4521 (1,10,5) 1.01548 (1,10,7) 1.01605 (1,11,6) -4.59048
(1,10,7): (1,9,7) -18.9388 (1,10,6) -1.01605 (1,10,8) -7.89266 (1,11,7) -6.00650
(1,10,8): (1,9,8) -5.22499 (1,10,7) 7.89266 (1,10,9) -2.06754 (1,11,8) -0.738083
(1,10,9): (1,9,9) -1.40910 (1,10,8) 2.06754 (1,10,10) -0.542709 (1,11,9) -3.380972E-02
(1,10,10): (1,9,10) -0.421153 (1,10,9) 0.542709 (1,11,10) 2.254818E-02
(1,11,1): (1,10,1) -8.837600E-03 (1,11,2) 0.161089 (1,12,1) -3.146909E-02
(1,11,2): (1,10,2) -1.598474E-02 (1,11,1) -0.161089 (1,11,3) 0.531744 (1,12,2) -0.104762
(1,11,3): (1,10,3) 3.567369E-02 (1,11,2) -0.531744 (1,11,4) 1.36582 (1,12,3) -0.370645
(1,11,4): (1,10,4) 0.738518 (1,11,3) -1.36582 (1,11,5) 2.54550 (1,12,4) -1.15073
(1,11,5): (1,10,5) 6.00657 (1,11,4) -2.54550 (1,11,6) 0.344882 (1,12,5) -2.86319
(1,11,6): (1,10,6) 4.59048 (1,11,5) -0.344882 (1,11,7) -0.344253 (1,12,6) -2.97220
(1,11,7): (1,10,7) 6.00650 (1,11,6) 0.344253 (1,11,8) -2.54292 (1,12,7) -2.86343
(1,11,8): (1,10,8) 0.738083 (1,11,7) 2.54292 (1,11,9) -1.35442 (1,12,8) -1.15191
(1,11,9): (1,10,9) 3.380972E-02 (1,11,8) 1.35442 (1,11,10) -0.486074 (1,12,9) -0.376229
(1,11,10): (1,10,10) -2.254818E-02 (1,11,9) 0.486074 (1,12,10) -0.129359
(1,12,1): (1,11,1) 3.146909E-02 (1,12,2) 8.775590E-02 (1,13,1) -2.659340E-02
(1,12,2): (1,11,2) 0.104762 (1,12,1) -8.775590E-02 (1,12,3) 0.265440 (1,13,2) -7.968252E-02
(1,12,3): (1,11,3) 0.370645 (1,12,2) -0.265440 (1,12,4) 0.584131 (1,13,3) -0.246347
(1,12,4): (1,11,4) 1.15073 (1,12,3) -0.584131 (1,12,5) 0.837942 (1,13,4) -0.632033
(1,12,5): (1,11,5) 2.86319 (1,12,4) -0.837942 (1,12,6) 0.238264 (1,13,5) -1.21900
(1,12,6): (1,11,6) 2.97220 (1,12,5) -0.238264 (1,12,7) -0.237866 (1,13,6) -1.36882
(1,12,7): (1,11,7) 2.86343 (1,12,6) 0.237866 (1,12,8) -0.836342 (1,13,7) -1.21922
(1,12,8): (1,11,8) 1.15191 (1,12,7) 0.836342 (1,12,9) -0.577240 (1,13,8) -0.633127
(1,12,9): (1,11,9) 0.376229 (1,12,8) 0.577240 (1,12,10) -0.238938 (1,13,9) -0.251317
(1,12,10): (1,11,10) 0.129359 (1,12,9) 0.238938 (1,13,10) -0.100068
(1,13,1): (1,12,1) 2.659340E-02 (1,13,2) 3.466251E-02 (1,14,1) -1.300323E-02
(1,13,2): (1,12,2) 7.968252E-02 (1,13,1) -3.466251E-02 (1,13,3) 9.874371E-02 (1,14,2) -3.651716E-02
(1,13,3): (1,12,3) 0.246347 (1,13,2) -9.874371E-02 (1,13,4) 0.198626 (1,14,3) -0.104915
(1,13,4): (1,12,4) 0.632033 (1,13,3) -0.198626 (1,13,5) 0.253111 (1,14,4) -0.246147
(1,13,5): (1,12,5) 1.21900 (1,13,4) -0.253111 (1,13,6) 9.004399E-02 (1,14,5) -0.430969
(1,13,6): (1,12,6) 1.36882 (1,13,5) -9.004399E-02 (1,13,7) -8.986152E-02 (1,14,6) -0.494514
(1,13,7): (1,12,7) 1.21922 (1,13,6) 8.986152E-02 (1,13,8) -0.252395 (1,14,7) -0.431084
(1,13,8): (1,12,8) 0.633127 (1,13,7) 0.252395 (1,13,9) -0.195639 (1,14,8) -0.246718
(1,13,9): (1,12,9) 0.251317 (1,13,8) 0.195639 (1,13,10) -8.770664E-02 (1,14,9) -0.107423
(1,13,10): (1,12,10) 0.100068 (1,13,9) 8.770664E-02 (1,14,10) -4.633714E-02
(1,14,1): (1,13,1) 1.300323E-02 (1,14,2) 1.114902E-02 (1,15,1) -4.443306E-03
(1,14,2): (1,13,2) 3.651716E-02 (1,14,1) -1.114902E-02 (1,14,3) 3.035040E-02 (1,15,2) -1.192866E-02
(1,14,3): (1,13,3) 0.104915 (1,14,2) -3.035040E-02 (1,14,4) 5.746027E-02 (1,15,3) -3.269127E-02
(1,14,4): (1,13,4) 0.246147 (1,14,3) -5.746027E-02 (1,14,5) 6.861233E-02 (1,15,4) -7.286618E-02
(1,14,5): (1,13,5) 0.430969 (1,14,4) -6.861233E-02 (1,14,6) 2.675035E-02 (1,15,5) -0.121764
(1,14,6): (1,13,6) 0.494514 (1,14,5) -2.675035E-02 (1,14,7) -2.668244E-02 (1,15,6) -0.140485
(1,14,7): (1,13,7) 0.431084 (1,14,6) 2.668244E-02 (1,14,8) -6.835342E-02 (1,15,7) -0.121806
(1,14,8): (1,13,8) 0.246718 (1,14,7) 6.835342E-02 (1,14,9) -5.641453E-02 (1,15,8) -7.307120E-02
(1,14,9): (1,13,9) 0.107423 (1,14,8) 5.641453E-02 (1,14,10) -2.663252E-02 (1,15,9) -3.356807E-02
(1,14,10): (1,13,10) 4.633714E-02 (1,14,9) 2.663252E-02 (1,15,10) -1.524534E-02
(1,15,1): (1,14,1) 4.443306E-03 (1,15,2) 3.663717E-03
(1,15,2): (1,14,2) 1.192866E-02 (1,15,1) -3.663717E-03 (1,15,3) 9.588284E-03
(1,15,3): (1,14,3) 3.269127E-02 (1,15,2) -9.588284E-03 (1,15,4) 1.729153E-02
(1,15,4): (1,14,4) 7.286618E-02 (1,15,3) -1.729153E-02 (1,15,5) 1.973989E-02
(1,15,5): (1,14,5) 0.121764 (1,15,4) -1.973989E-02 (1,15,6) 8.051125E-03
(1,15,6): (1,14,6) 0.140485 (1,15,5) -8.051125E-03 (1,15,7) -8.025152E-03
(1,15,7): (1,14,7) 0.121806 (1,15,6) 8.025152E-03 (1,15,8) -1.964409E-02
(1,15,8): (1,14,8) 7.307120E-02 (1,15,7) 1.964409E-02 (1,15,9) -1.691796E-02
(1,15,9): (1,14,9) 3.356807E-02 (1,15,8) 1.691796E-02 (1,15,10) -8.311063E-03
(1,15,10): (1,14,10) 1.524534E-02 (1,15,9) 8.311063E-03

 WEL PACKAGE (WEL-1) FLOW RATES   PERIOD      2   STEP       33
 ----------------------------------------------------------------------------------------
   NUMBER   CELLID                    RATE       NAME                                    
 ----------------------------------------------------------------------------------------
     1      (1,8,6)              -220.44081      WEL                                     
 ----------------------------------------------------------------------------------------




 DRN PACKAGE (DRN-0) FLOW RATES   PERIOD      2   STEP       33
 ----------------------------------------------------------------------------------------
   NUMBER   CELLID                    RATE       NAME                                    
 ----------------------------------------------------------------------------------------
     1      (1,1,1)               0.0000000      SURF                                    
     2      (1,1,2)               0.0000000      SURF                                    
     3      (1,1,3)               0.0000000      SURF                                    
     4      (1,1,4)               0.0000000      SURF                                    
     5      (1,1,5)               0.0000000      SURF                                    
     6      (1,1,6)               0.0000000      SURF                                    
     7      (1,1,7)               0.0000000      SURF                                    
     8      (1,1,8)               0.0000000      SURF                                    
     9      (1,1,9)               0.0000000      SURF                                    
     10     (1,1,10)              0.0000000      SURF                                    
     11     (1,2,1)               0.0000000      SURF                                    
     12     (1,2,2)               0.0000000      SURF                                    
     13     (1,2,3)               0.0000000      SURF                                    
     14     (1,2,4)               0.0000000      SURF                                    
     15     (1,2,5)               0.0000000      SURF                                    
     16     (1,2,6)               0.0000000      SURF                                    
     17     (1,2,7)               0.0000000      SURF                                    
     18     (1,2,8)               0.0000000      SURF                                    
     19     (1,2,9)               0.0000000      SURF                                    
     20     (1,2,10)              0.0000000      SURF                                    
     21     (1,3,1)               0.0000000      SURF                                    
     22     (1,3,2)               0.0000000      SURF                                    
     23     (1,3,3)               0.0000000      SURF                                    
     24     (1,3,4)               0.0000000      SURF                                    
     25     (1,3,5)               0.0000000      SURF                                    
     26     (1,3,6)               0.0000000      SURF                                    
     27     (1,3,7)               0.0000000      SURF                                    
     28     (1,3,8)               0.0000000      SURF                                    
     29     (1,3,9)               0.0000000      SURF                                    
     30     (1,3,10)              0.0000000      SURF                                    
     31     (1,4,1)               0.0000000      SURF                                    
     32     (1,4,2)               0.0000000      SURF                                    
     33     (1,4,3)               0.0000000      SURF                                    
     34     (1,4,4)               0.0000000      SURF                                    
     35     (1,4,5)               0.0000000      SURF                                    
     36     (1,4,6)               0.0000000      SURF                                    
     37     (1,4,7)               0.0000000      SURF                                    
     38     (1,4,8)               0.0000000      SURF                                    
     39     (1,4,9)               0.0000000      SURF                                    
     40     (1,4,10)              0.0000000      SURF                                    
     41     (1,5,1)               0.0000000      SURF                                    
     42     (1,5,2)               0.0000000      SURF                                    
     43     (1,5,3)               0.0000000      SURF                                    
     44     (1,5,4)               0.0000000      SURF                                    
     45     (1,5,5)               0.0000000      SURF                                    
     46     (1,5,6)               0.0000000      SURF                                    
     47     (1,5,7)               0.0000000      SURF                                    
     48     (1,5,8)               0.0000000      SURF                                    
     49     (1,5,9)               0.0000000      SURF                                    
     50     (1,5,10)              0.0000000      SURF                                    
     51     (1,6,1)               0.0000000      SURF                                    
     52     (1,6,2)               0.0000000      SURF                                    
     53     (1,6,3)               0.0000000      SURF                                    
     54     (1,6,4)               0.0000000      SURF                                    
     55     (1,6,5)               0.0000000      SURF                                    
     56     (1,6,6)               0.0000000      SURF                                    
     57     (1,6,7)              -8.57107807E-09 SURF                                    
     58     (1,6,8)               0.0000000      SURF                                    
     59     (1,6,9)               0.0000000      SURF                                    
     60     (1,6,10)              0.0000000      SURF                                    
     61     (1,7,1)               0.0000000      SURF                                    
     62     (1,7,2)               0.0000000      SURF                                    
     63     (1,7,3)               0.0000000      SURF                                    
     64     (1,7,4)               0.0000000      SURF                                    
     65     (1,7,5)               0.0000000      SURF                                    
     66     (1,7,6)               0.0000000      SURF                                    
     67     (1,7,7)               0.0000000      SURF                                    
     68     (1,7,8)               0.0000000      SURF                                    
     69     (1,7,9)               0.0000000      SURF                                    
     70     (1,7,10)              0.0000000      SURF                                    
     71     (1,8,1)               0.0000000      SURF                                    
     72     (1,8,2)               0.0000000      SURF                                    
     73     (1,8,3)               0.0000000      SURF                                    
     74     (1,8,4)               0.0000000      SURF                                    
     75     (1,8,5)               0.0000000      SURF                                    
     76     (1,8,6)               0.0000000      SURF                                    
     77     (1,8,7)               0.0000000      SURF                                    
     78     (1,8,8)               0.0000000      SURF                                    
     79     (1,8,9)               0.0000000      SURF                                    
     80     (1,8,10)              0.0000000      SURF                                    
     81     (1,9,1)               0.0000000      SURF                                    
     82     (1,9,2)               0.0000000      SURF                                    
     83     (1,9,3)               0.0000000      SURF                                    
     84     (1,9,4)               0.0000000      SURF                                    
     85     (1,9,5)               0.0000000      SURF                                    
     86     (1,9,6)               0.0000000      SURF                                    
     87     (1,9,7)               0.0000000      SURF                                    
     88     (1,9,8)               0.0000000      SURF                                    
     89     (1,9,9)               0.0000000      SURF                                    
     90     (1,9,10)              0.0000000      SURF                                    
     91     (1,10,1)              0.0000000      SURF                                    
     92     (1,10,2)              0.0000000      SURF                                    
     93     (1,10,3)              0.0000000      SURF                                    
     94     (1,10,4)              0.0000000      SURF                                    
     95     (1,10,5)              0.0000000      SURF                                    
     96     (1,10,6)              0.0000000      SURF                                    
     97     (1,10,7)             -3.86207830E-07 SURF                                    
     98     (1,10,8)              0.0000000      SURF                                    
     99     (1,10,9)              0.0000000      SURF                                    
    100     (1,10,10)             0.0000000      SURF                                    
    101     (1,11,1)              0.0000000      SURF                                    
    102     (1,11,2)              0.0000000      SURF                                    
    103     (1,11,3)              0.0000000      SURF                                    
    104     (1,11,4)              0.0000000      SURF                                    
    105     (1,11,5)              0.0000000      SURF                                    
    106     (1,11,6)              0.0000000      SURF                                    
    107     (1,11,7)              0.0000000      SURF                                    
    108     (1,11,8)              0.0000000      SURF                                    
    109     (1,11,9)              0.0000000      SURF                                    
    110     (1,11,10)             0.0000000      SURF                                    
    111     (1,12,1)              0.0000000      SURF                                    
    112     (1,12,2)              0.0000000      SURF                                    
    113     (1,12,3)              0.0000000      SURF                                    
    114     (1,12,4)              0.0000000      SURF                                    
    115     (1,12,5)              0.0000000      SURF                                    
    116     (1,12,6)              0.0000000      SURF                                    
    117     (1,12,7)              0.0000000      SURF                                    
    118     (1,12,8)              0.0000000      SURF                                    
    119     (1,12,9)              0.0000000      SURF                                    
    120     (1,12,10)             0.0000000      SURF                                    
    121     (1,13,1)              0.0000000      SURF                                    
    122     (1,13,2)              0.0000000      SURF                                    
    123     (1,13,3)              0.0000000      SURF                                    
    124     (1,13,4)              0.0000000      SURF                                    
    125     (1,13,5)              0.0000000      SURF                                    
    126     (1,13,6)              0.0000000      SURF                                    
    127     (1,13,7)              0.0000000      SURF                                    
    128     (1,13,8)              0.0000000      SURF                                    
    129     (1,13,9)              0.0000000      SURF                                    
    130     (1,13,10)             0.0000000      SURF                                    
    131     (1,14,1)              0.0000000      SURF                                    
    132     (1,14,2)              0.0000000      SURF                                    
    133     (1,14,3)              0.0000000      SURF                                    
    134     (1,14,4)              0.0000000      SURF                                    
    135     (1,14,5)              0.0000000      SURF                                    
    136     (1,14,6)              0.0000000      SURF                                    
    137     (1,14,7)              0.0000000      SURF                                    
    138     (1,14,8)              0.0000000      SURF                                    
    139     (1,14,9)              0.0000000      SURF                                    
    140     (1,14,10)             0.0000000      SURF                                    
    141     (1,15,1)              0.0000000      SURF                                    
    142     (1,15,2)              0.0000000      SURF                                    
    143     (1,15,3)              0.0000000      SURF                                    
    144     (1,15,4)              0.0000000      SURF                                    
    145     (1,15,5)              0.0000000      SURF                                    
    146     (1,15,6)              0.0000000      SURF                                    
    147     (1,15,7)              0.0000000      SURF                                    
    148     (1,15,8)              0.0000000      SURF                                    
    149     (1,15,9)              0.0000000      SURF                                    
    150     (1,15,10)             0.0000000      SURF                                    
 ----------------------------------------------------------------------------------------




 API PACKAGE (MAR) FLOW RATES   PERIOD      2   STEP       33
 -----------------------------------------------
   NUMBER   CELLID                    RATE      
 -----------------------------------------------
     1      (1,6,5)               33.518451     
     2      (1,6,6)               33.518451     
     3      (1,6,7)               33.518451     
     4      (1,10,5)              33.854051     
     5      (1,10,6)              33.854051     
     6      (1,10,7)              33.854051     
 -----------------------------------------------



1
  HEAD IN LAYER   1 AT END OF TIME STEP  33 IN STRESS PERIOD    2
  ---------------------------------------------------------------------------

            1           2           3           4           5           6           7           8           9          10
 ........................................................................................................................
   1   4.2589E-04  9.8842E-04  2.3819E-03  4.7553E-03  7.3555E-03  8.4272E-03  7.3610E-03  4.7796E-03  2.4732E-03  1.2918E-03
   2   1.1145E-03  2.6886E-03  6.7304E-03  1.3934E-02  2.2166E-02  2.5424E-02  2.2179E-02  1.3995E-02  6.9647E-03  3.4922E-03
   3   3.0131E-03  7.5676E-03  1.9761E-02  4.2776E-02  7.0757E-02  8.0898E-02  7.0792E-02  4.2932E-02  2.0381E-02  9.7648E-03
   4   6.6627E-03  1.7497E-02  4.8139E-02  0.1111      0.1969      0.2218      0.1970      0.1114      4.9478E-02  2.2405E-02
   5   1.0815E-02  2.9792E-02  8.7872E-02  0.2262      0.4694      0.5026      0.4695      0.2267      8.9994E-02  3.7823E-02
   6   1.0124E-02  2.8335E-02  9.0672E-02  0.2933      0.9999      0.9051       1.000      0.2938      9.2659E-02  3.5828E-02
   7  -3.0189E-04 -8.3020E-03 -5.0840E-02 -0.2166     -0.7156      -1.971     -0.7156     -0.2165     -5.0630E-02 -8.9613E-03
   8  -8.2170E-03 -3.6094E-02 -0.1617     -0.6478      -2.390      -9.201      -2.390     -0.6479     -0.1629     -4.2927E-02
   9  -2.4100E-03 -1.2326E-02 -5.8080E-02 -0.2256     -0.7217      -1.976     -0.7217     -0.2257     -5.8360E-02 -1.4420E-02
  10   6.9060E-03  2.2265E-02  8.0169E-02  0.2822      0.9999      0.9076       1.000      0.2825      8.1412E-02  2.7580E-02
  11   7.7890E-03  2.3860E-02  7.6630E-02  0.2104      0.4539      0.4868      0.4540      0.2107      7.8059E-02  2.9828E-02
  12   4.6446E-03  1.3408E-02  3.9847E-02  9.7695E-02  0.1800      0.2034      0.1800      9.7891E-02  4.0727E-02  1.6930E-02
  13   1.9865E-03  5.4508E-03  1.5310E-02  3.5103E-02  6.0263E-02  6.9205E-02  6.0281E-02  3.5193E-02  1.5697E-02  6.9404E-03
  14   6.8640E-04  1.8011E-03  4.8347E-03  1.0575E-02  1.7424E-02  2.0094E-02  1.7431E-02  1.0607E-02  4.9718E-03  2.3099E-03
  15   2.4210E-04  6.0845E-04  1.5671E-03  3.2957E-03  5.2687E-03  6.0733E-03  5.2713E-03  3.3079E-03  1.6166E-03  7.8567E-04

 HEAD WILL BE SAVED ON UNIT 1100 AT END OF TIME STEP   33, STRESS PERIOD    2


  VOLUME BUDGET FOR ENTIRE MODEL AT END OF TIME STEP   33, STRESS PERIOD   2
  ---------------------------------------------------------------------------------------------------

     CUMULATIVE VOLUME      L**3       RATES FOR THIS TIME STEP      L**3/T          PACKAGE NAME    
     ------------------                 ------------------------                     ----------------

           IN:                                      IN:
           ---                                      ---
              STO-SS =          18.7247                STO-SS =       2.4474E-02     STORAGE                          
              STO-SY =       48111.4079                STO-SY =          54.6641     STORAGE                          
                 WEL =           0.0000                   WEL =           0.0000     WEL-1                            
                 DRN =           0.0000                   DRN =           0.0000     DRN-0                            
                 API =       66051.2816                   API =         202.1175     MAR                              
                 CHD =       2.0279E-08                   CHD =           0.0000     CHD_0                            

            TOTAL IN =      114181.4141              TOTAL IN =         256.8061

          OUT:                                     OUT:
          ----                                     ----
              STO-SS =          15.2440                STO-SS =       1.8436E-02     STORAGE                          
              STO-SY =       29655.6508                STO-SY =          36.3468     STORAGE                          
                 WEL =       84510.5192                   WEL =         220.4408     WEL-1                            
                 DRN =       1.0280E-04                   DRN =       3.9478E-07     DRN-0                            
                 API =           0.0000                   API =           0.0000     MAR                              
                 CHD =       2.0705E-08                   CHD =           0.0000     CHD_0                            

           TOTAL OUT =      114181.4141             TOTAL OUT =         256.8061

            IN - OUT =      -7.8601E-07              IN - OUT =      -3.0696E-09

 PERCENT DISCREPANCY =          -0.00     PERCENT DISCREPANCY =          -0.00




         TIME SUMMARY AT END OF TIME STEP   33 IN STRESS PERIOD    2
                    SECONDS     MINUTES      HOURS       DAYS        YEARS
                    -----------------------------------------------------------
   TIME STEP LENGTH 8.64000E+05  14400.      240.00      10.000     2.73785E-02
 STRESS PERIOD TIME 2.85120E+07 4.75200E+05  7920.0      330.00     0.90349    
         TOTAL TIME 2.85984E+07 4.76640E+05  7944.0      331.00     0.90623    


end timestep


start timestep kper="2" kstp="34" mode="normal"

 UBDSV1 SAVING           STO-SS ON UNIT   1099 AT TIME STEP     34, STRESS PERIOD      2
 UBDSV1 SAVING           STO-SY ON UNIT   1099 AT TIME STEP     34, STRESS PERIOD      2
 UBDSV1 SAVING     FLOW-JA-FACE ON UNIT   1099 AT TIME STEP     34, STRESS PERIOD      2
 UBDSV06 SAVING       DATA-SPDIS IN MODEL GWF              PACKAGE NPF             CONNECTED TO MODEL GWF              PACKAGE NPF              ON UNIT   1099 AT TIME STEP     34, STRESS PERIOD      2
 UBDSV06 SAVING              WEL IN MODEL GWF              PACKAGE GWF             CONNECTED TO MODEL GWF              PACKAGE WEL-1            ON UNIT   1099 AT TIME STEP     34, STRESS PERIOD      2
 UBDSV06 SAVING              DRN IN MODEL GWF              PACKAGE GWF             CONNECTED TO MODEL GWF              PACKAGE DRN-0            ON UNIT   1099 AT TIME STEP     34, STRESS PERIOD      2
 UBDSV06 SAVING              API IN MODEL GWF              PACKAGE GWF             CONNECTED TO MODEL GWF              PACKAGE MAR              ON UNIT   1099 AT TIME STEP     34, STRESS PERIOD      2
 UBDSV06 SAVING              CHD IN MODEL GWF              PACKAGE GWF             CONNECTED TO MODEL GWF              PACKAGE CHD_0            ON UNIT   1099 AT TIME STEP     34, STRESS PERIOD      2

    CALCULATED INTERCELL FLOW FOR PERIOD 2 STEP 34
(1,1,1): (1,1,2) 6.311627E-03 (1,2,1) 7.703570E-03
(1,1,2): (1,1,1) -6.311627E-03 (1,1,3) 1.541672E-02 (1,2,2) 1.862928E-02
(1,1,3): (1,1,2) -1.541672E-02 (1,1,4) 2.587152E-02 (1,2,3) 4.684939E-02
(1,1,4): (1,1,3) -2.587152E-02 (1,1,5) 2.802449E-02 (1,2,4) 9.764298E-02
(1,1,5): (1,1,4) -2.802449E-02 (1,1,6) 1.154048E-02 (1,2,5) 0.156313
(1,1,6): (1,1,5) -1.154048E-02 (1,1,7) -1.147250E-02 (1,2,6) 0.179094
(1,1,7): (1,1,6) 1.147250E-02 (1,1,8) -2.780105E-02 (1,2,7) 0.156408
(1,1,8): (1,1,7) 2.780105E-02 (1,1,9) -2.508580E-02 (1,2,8) 9.806261E-02
(1,1,9): (1,1,8) 2.508580E-02 (1,1,10) -1.298714E-02 (1,2,9) 4.847136E-02
(1,1,10): (1,1,9) 1.298714E-02 (1,2,10) 2.418868E-02
(1,2,1): (1,1,1) -7.703570E-03 (1,2,2) 1.723718E-02 (1,3,1) 2.082680E-02
(1,2,2): (1,1,2) -1.862928E-02 (1,2,1) -1.723718E-02 (1,2,3) 4.363593E-02 (1,3,2) 5.241675E-02
(1,2,3): (1,1,3) -4.684939E-02 (1,2,2) -4.363593E-02 (1,2,4) 7.665449E-02 (1,3,3) 0.137769
(1,2,4): (1,1,4) -9.764298E-02 (1,2,3) -7.665449E-02 (1,2,5) 8.665419E-02 (1,3,4) 0.301659
(1,2,5): (1,1,5) -0.156313 (1,2,4) -8.665419E-02 (1,2,6) 3.428878E-02 (1,3,5) 0.505398
(1,2,6): (1,1,6) -0.179094 (1,2,5) -3.428878E-02 (1,2,7) -3.412638E-02 (1,3,6) 0.576591
(1,2,7): (1,1,7) -0.156408 (1,2,6) 3.412638E-02 (1,2,8) -8.610548E-02 (1,3,7) 0.505641
(1,2,8): (1,1,8) -9.806261E-02 (1,2,7) 8.610548E-02 (1,2,9) -7.466549E-02 (1,3,8) 0.302750
(1,2,9): (1,1,9) -4.847136E-02 (1,2,8) 7.466549E-02 (1,2,10) -3.726710E-02 (1,3,9) 0.142077
(1,2,10): (1,1,10) -2.418868E-02 (1,2,9) 3.726710E-02 (1,3,10) 6.761822E-02
(1,3,1): (1,2,1) -2.082680E-02 (1,3,2) 4.882599E-02 (1,4,1) 3.905541E-02
(1,3,2): (1,2,2) -5.241675E-02 (1,3,1) -4.882599E-02 (1,3,3) 0.128981 (1,4,2) 0.104152
(1,3,3): (1,2,3) -0.137769 (1,3,2) -0.128981 (1,3,4) 0.240445 (1,4,3) 0.293800
(1,3,4): (1,2,4) -0.301659 (1,3,3) -0.240445 (1,3,5) 0.289963 (1,4,4) 0.704015
(1,3,5): (1,2,5) -0.505398 (1,3,4) -0.289963 (1,3,6) 0.105154 (1,4,5) 1.30266
(1,3,6): (1,2,6) -0.576591 (1,3,5) -0.105154 (1,3,7) -0.104750 (1,4,6) 1.45637
(1,3,7): (1,2,7) -0.505641 (1,3,6) 0.104750 (1,3,8) -0.288564 (1,4,7) 1.30309
(1,3,8): (1,2,8) -0.302750 (1,3,7) 0.288564 (1,3,9) -0.235231 (1,4,8) 0.705962
(1,3,9): (1,2,9) -0.142077 (1,3,8) 0.235231 (1,3,10) -0.111703 (1,4,9) 0.301678
(1,3,10): (1,2,10) -6.761822E-02 (1,3,9) 0.111703 (1,4,10) 0.133065
(1,4,1): (1,3,1) -3.905541E-02 (1,4,2) 0.113929 (1,5,1) 4.282999E-02
(1,4,2): (1,3,2) -0.104152 (1,4,1) -0.113929 (1,4,3) 0.318675 (1,5,2) 0.124646
(1,4,3): (1,3,3) -0.293800 (1,4,2) -0.318675 (1,4,4) 0.650446 (1,5,3) 0.400643
(1,4,4): (1,3,4) -0.704015 (1,4,3) -0.650446 (1,4,5) 0.886232 (1,5,4) 1.17238
(1,4,5): (1,3,5) -1.30266 (1,4,4) -0.886232 (1,4,6) 0.257144 (1,5,5) 2.84447
(1,4,6): (1,3,6) -1.45637 (1,4,5) -0.257144 (1,4,7) -0.256312 (1,5,6) 2.93643
(1,4,7): (1,3,7) -1.30309 (1,4,6) 0.256312 (1,4,8) -0.883304 (1,5,7) 2.84492
(1,4,8): (1,3,8) -0.705962 (1,4,7) 0.883304 (1,4,9) -0.639253 (1,5,8) 1.17439
(1,4,9): (1,3,9) -0.301678 (1,4,8) 0.639253 (1,4,10) -0.280281 (1,5,9) 0.408974
(1,4,10): (1,3,10) -0.133065 (1,4,9) 0.280281 (1,5,10) 0.156835
(1,5,1): (1,4,1) -4.282999E-02 (1,5,2) 0.195802 (1,6,1) -1.001526E-02
(1,5,2): (1,4,2) -0.124646 (1,5,1) -0.195802 (1,5,3) 0.595199 (1,6,2) -2.323960E-02
(1,5,3): (1,4,3) -0.400643 (1,5,2) -0.595199 (1,5,4) 1.42403 (1,6,3) 5.011286E-03
(1,5,4): (1,4,4) -1.17238 (1,5,3) -1.42403 (1,5,5) 2.55396 (1,6,4) 0.645545
(1,5,5): (1,4,5) -2.84447 (1,5,4) -2.55396 (1,5,6) 0.347157 (1,6,5) 5.79452
(1,5,6): (1,4,6) -2.93643 (1,5,5) -0.347157 (1,5,7) -0.345878 (1,6,6) 4.34523
(1,5,7): (1,4,7) -2.84492 (1,5,6) 0.345878 (1,5,8) -2.54941 (1,6,7) 5.79448
(1,5,8): (1,4,8) -1.17439 (1,5,7) 2.54941 (1,5,9) -1.40635 (1,6,8) 0.645124
(1,5,9): (1,4,9) -0.408974 (1,5,8) 1.40635 (1,5,10) -0.532726 (1,6,9) 3.048523E-03
(1,5,10): (1,4,10) -0.156835 (1,5,9) 0.532726 (1,6,10) -3.102289E-02
(1,6,1): (1,5,1) 1.001526E-02 (1,6,2) 0.182555 (1,7,1) -0.111534
(1,6,2): (1,5,2) 2.323960E-02 (1,6,1) -0.182555 (1,6,3) 0.623617 (1,7,2) -0.384891
(1,6,3): (1,5,3) -5.011286E-03 (1,6,2) -0.623617 (1,6,4) 2.07319 (1,7,3) -1.47226
(1,6,4): (1,5,4) -0.645545 (1,6,3) -2.07319 (1,6,5) 7.78700 (1,7,4) -5.34395
(1,6,5): (1,5,5) -5.79452 (1,6,4) -7.78700 (1,6,6) -1.04786 (1,7,5) -19.0472
(1,6,6): (1,5,6) -4.34523 (1,6,5) 1.04786 (1,6,7) 1.04911 (1,7,6) -31.5236
(1,6,7): (1,5,7) -5.79448 (1,6,6) -1.04911 (1,6,8) -7.78265 (1,7,7) -19.0481
(1,6,8): (1,5,8) -0.645124 (1,6,7) 7.78265 (1,6,9) -2.05698 (1,7,8) -5.34822
(1,6,9): (1,5,9) -3.048523E-03 (1,6,8) 2.05698 (1,6,10) -0.566977 (1,7,9) -1.49198
(1,6,10): (1,5,10) 3.102289E-02 (1,6,9) 0.566977 (1,7,10) -0.472168
(1,7,1): (1,6,1) 0.111534 (1,7,2) -9.033302E-02 (1,8,1) -8.347888E-02
(1,7,2): (1,6,2) 0.384891 (1,7,1) 9.033302E-02 (1,7,3) -0.456802 (1,8,2) -0.287551
(1,7,3): (1,6,3) 1.47226 (1,7,2) 0.456802 (1,7,4) -1.70940 (1,8,3) -1.12630
(1,7,4): (1,6,4) 5.34395 (1,7,3) 1.70940 (1,7,5) -4.92962 (1,8,4) -4.25763
(1,7,5): (1,6,5) 19.0472 (1,7,4) 4.92962 (1,7,6) -11.6274 (1,8,5) -15.5666
(1,7,6): (1,6,6) 31.5236 (1,7,5) 11.6274 (1,7,7) 11.6278 (1,8,6) -57.8448
(1,7,7): (1,6,7) 19.0481 (1,7,6) -11.6278 (1,7,8) 4.93050 (1,8,7) -15.5673
(1,7,8): (1,6,8) 5.34822 (1,7,7) -4.93050 (1,7,9) 1.70993 (1,8,8) -4.26085
(1,7,9): (1,6,9) 1.49198 (1,7,8) -1.70993 (1,7,10) 0.445590 (1,8,9) -1.14107
(1,7,10): (1,6,10) 0.472168 (1,7,9) -0.445590 (1,8,10) -0.352251
(1,8,1): (1,7,1) 8.347888E-02 (1,8,2) -0.294419 (1,9,1) 6.197223E-02
(1,8,2): (1,7,2) 0.287551 (1,8,1) 0.294419 (1,8,3) -1.29698 (1,9,2) 0.247638
(1,8,3): (1,7,3) 1.12630 (1,8,2) 1.29698 (1,8,4) -4.85963 (1,9,3) 1.05614
(1,8,4): (1,7,4) 4.25763 (1,8,3) 4.85963 (1,8,5) -16.3241 (1,9,4) 4.17085
(1,8,5): (1,7,5) 15.5666 (1,8,4) 16.3241 (1,8,6) -51.5516 (1,9,5) 15.5056
(1,8,6): (1,7,6) 57.8448 (1,8,5) 51.5516 (1,8,7) 51.5513 (1,9,6) 57.7778
(1,8,7): (1,7,7) 15.5673 (1,8,6) -51.5513 (1,8,8) 16.3221 (1,9,7) 15.5059
(1,8,8): (1,7,8) 4.26085 (1,8,7) -16.3221 (1,8,9) 4.84809 (1,9,8) 4.17254
(1,8,9): (1,7,9) 1.14107 (1,8,8) -4.84809 (1,8,10) 1.23515 (1,9,9) 1.06581
(1,8,10): (1,7,10) 0.352251 (1,8,9) -1.23515 (1,9,10) 0.297839
(1,9,1): (1,8,1) -6.197223E-02 (1,9,2) -0.108667 (1,10,1) 0.100081
(1,9,2): (1,8,2) -0.247638 (1,9,1) 0.108667 (1,9,3) -0.486524 (1,10,2) 0.364097
(1,9,3): (1,8,3) -1.05614 (1,9,2) 0.486524 (1,9,4) -1.72338 (1,10,3) 1.43836
(1,9,4): (1,8,4) -4.17085 (1,9,3) 1.72338 (1,9,5) -4.89664 (1,10,4) 5.31683
(1,9,5): (1,8,5) -15.5056 (1,9,4) 4.89664 (1,9,6) -11.6096 (1,10,5) 19.1091
(1,9,6): (1,8,6) -57.7778 (1,9,5) 11.6096 (1,9,7) 11.6096 (1,10,6) 31.6056
(1,9,7): (1,8,7) -15.5059 (1,9,6) -11.6096 (1,9,8) 4.89634 (1,10,7) 19.1098
(1,9,8): (1,8,8) -4.17254 (1,9,7) -4.89634 (1,9,9) 1.72028 (1,10,8) 5.32022
(1,9,9): (1,8,9) -1.06581 (1,9,8) -1.72028 (1,9,10) 0.465878 (1,10,9) 1.45528
(1,9,10): (1,8,10) -0.297839 (1,9,9) -0.465878 (1,10,10) 0.443632
(1,10,1): (1,9,1) -0.100081 (1,10,2) 0.154917 (1,11,1) 1.165654E-02
(1,10,2): (1,9,2) -0.364097 (1,10,1) -0.154917 (1,10,3) 0.581067 (1,11,2) 2.397687E-02
(1,10,3): (1,9,3) -1.43836 (1,10,2) -0.581067 (1,10,4) 2.06680 (1,11,3) -1.340237E-02
(1,10,4): (1,9,4) -5.31683 (1,10,3) -2.06680 (1,10,5) 7.90434 (1,11,4) -0.692636
(1,10,5): (1,9,5) -19.1091 (1,10,4) -7.90434 (1,10,6) -1.02132 (1,11,5) -5.95763
(1,10,6): (1,9,6) -31.6056 (1,10,5) 1.02132 (1,10,7) 1.02195 (1,11,6) -4.53618
(1,10,7): (1,9,7) -19.1098 (1,10,6) -1.02195 (1,10,8) -7.90182 (1,11,7) -5.95754
(1,10,8): (1,9,8) -5.32022 (1,10,7) 7.90182 (1,10,9) -2.05618 (1,11,8) -0.692076
(1,10,9): (1,9,9) -1.45528 (1,10,8) 2.05618 (1,10,10) -0.538851 (1,11,9) -1.099576E-02
(1,10,10): (1,9,10) -0.443632 (1,10,9) 0.538851 (1,11,10) 3.268734E-02
(1,11,1): (1,10,1) -1.165654E-02 (1,11,2) 0.167255 (1,12,1) -3.275676E-02
(1,11,2): (1,10,2) -2.397687E-02 (1,11,1) -0.167255 (1,11,3) 0.543484 (1,12,2) -0.106738
(1,11,3): (1,10,3) 1.340237E-02 (1,11,2) -0.543484 (1,11,4) 1.37874 (1,12,3) -0.372576
(1,11,4): (1,10,4) 0.692636 (1,11,3) -1.37874 (1,11,5) 2.55542 (1,12,4) -1.14946
(1,11,5): (1,10,5) 5.95763 (1,11,4) -2.55542 (1,11,6) 0.344798 (1,12,5) -2.85809
(1,11,6): (1,10,6) 4.53618 (1,11,5) -0.344798 (1,11,7) -0.344075 (1,12,6) -2.96276
(1,11,7): (1,10,7) 5.95754 (1,11,6) 0.344075 (1,11,8) -2.55253 (1,12,7) -2.85835
(1,11,8): (1,10,8) 0.692076 (1,11,7) 2.55253 (1,11,9) -1.36632 (1,12,8) -1.15073
(1,11,9): (1,10,9) 1.099576E-02 (1,11,8) 1.36632 (1,11,10) -0.494951 (1,12,9) -0.378481
(1,11,10): (1,10,10) -3.268734E-02 (1,11,9) 0.494951 (1,12,10) -0.132182
(1,12,1): (1,11,1) 3.275676E-02 (1,12,2) 9.322921E-02 (1,13,1) -2.885032E-02
(1,12,2): (1,11,2) 0.106738 (1,12,1) -9.322921E-02 (1,12,3) 0.277199 (1,13,2) -8.438994E-02
(1,12,3): (1,11,3) 0.372576 (1,12,2) -0.277199 (1,12,4) 0.600166 (1,13,3) -0.256060
(1,12,4): (1,11,4) 1.14946 (1,12,3) -0.600166 (1,12,5) 0.851434 (1,13,4) -0.647917
(1,12,5): (1,11,5) 2.85809 (1,12,4) -0.851434 (1,12,6) 0.242409 (1,13,5) -1.23934
(1,12,6): (1,11,6) 2.96276 (1,12,5) -0.242409 (1,12,7) -0.241941 (1,13,6) -1.38991
(1,12,7): (1,11,7) 2.85835 (1,12,6) 0.241941 (1,12,8) -0.849604 (1,13,7) -1.23959
(1,12,8): (1,11,8) 1.15073 (1,12,7) 0.849604 (1,12,9) -0.592483 (1,13,8) -0.649153
(1,12,9): (1,11,9) 0.378481 (1,12,8) 0.592483 (1,12,10) -0.248371 (1,13,9) -0.261540
(1,12,10): (1,11,10) 0.132182 (1,12,9) 0.248371 (1,13,10) -0.106355
(1,13,1): (1,12,1) 2.885032E-02 (1,13,2) 3.768469E-02 (1,14,1) -1.451138E-02
(1,13,2): (1,12,2) 8.438994E-02 (1,13,1) -3.768469E-02 (1,13,3) 0.105493 (1,14,2) -3.977620E-02
(1,13,3): (1,12,3) 0.256060 (1,13,2) -0.105493 (1,13,4) 0.208491 (1,14,3) -0.112043
(1,13,4): (1,12,4) 0.647917 (1,13,3) -0.208491 (1,13,5) 0.262202 (1,14,4) -0.258813
(1,13,5): (1,12,5) 1.23934 (1,13,4) -0.262202 (1,13,6) 9.346233E-02 (1,14,5) -0.448577
(1,13,6): (1,12,6) 1.38991 (1,13,5) -9.346233E-02 (1,13,7) -9.324294E-02 (1,14,6) -0.513888
(1,13,7): (1,12,7) 1.23959 (1,13,6) 9.324294E-02 (1,13,8) -0.261364 (1,14,7) -0.448714
(1,13,8): (1,12,8) 0.649153 (1,13,7) 0.261364 (1,13,9) -0.205084 (1,14,8) -0.259475
(1,13,9): (1,12,9) 0.261540 (1,13,8) 0.205084 (1,13,10) -9.320590E-02 (1,14,9) -0.114887
(1,13,10): (1,12,10) 0.106355 (1,13,9) 9.320590E-02 (1,14,10) -5.065736E-02
(1,14,1): (1,13,1) 1.451138E-02 (1,14,2) 1.242040E-02 (1,15,1) -5.072657E-03
(1,14,2): (1,13,2) 3.977620E-02 (1,14,1) -1.242040E-02 (1,14,3) 3.323129E-02 (1,15,2) -1.329802E-02
(1,14,3): (1,13,3) 0.112043 (1,14,2) -3.323129E-02 (1,14,4) 6.179477E-02 (1,15,3) -3.573340E-02
(1,14,4): (1,13,4) 0.258813 (1,14,3) -6.179477E-02 (1,14,5) 7.278462E-02 (1,15,4) -7.840549E-02
(1,14,5): (1,13,5) 0.448577 (1,14,4) -7.278462E-02 (1,14,6) 2.842057E-02 (1,15,5) -0.129673
(1,14,6): (1,13,6) 0.513888 (1,14,5) -2.842057E-02 (1,14,7) -2.833703E-02 (1,15,6) -0.149323
(1,14,7): (1,13,7) 0.448714 (1,14,6) 2.833703E-02 (1,14,8) -7.247466E-02 (1,15,7) -0.129724
(1,14,8): (1,13,8) 0.259475 (1,14,7) 7.247466E-02 (1,14,9) -6.057310E-02 (1,15,8) -7.864852E-02
(1,14,9): (1,13,9) 0.114887 (1,14,8) 6.057310E-02 (1,14,10) -2.899054E-02 (1,15,9) -3.674948E-02
(1,14,10): (1,13,10) 5.065736E-02 (1,14,9) 2.899054E-02 (1,15,10) -1.705709E-02
(1,15,1): (1,14,1) 5.072657E-03 (1,15,2) 4.195107E-03
(1,15,2): (1,14,2) 1.329802E-02 (1,15,1) -4.195107E-03 (1,15,3) 1.079647E-02
(1,15,3): (1,14,3) 3.573340E-02 (1,15,2) -1.079647E-02 (1,15,4) 1.912975E-02
(1,15,4): (1,14,4) 7.840549E-02 (1,15,3) -1.912975E-02 (1,15,5) 2.154614E-02
(1,15,5): (1,14,5) 0.129673 (1,15,4) -2.154614E-02 (1,15,6) 8.794114E-03
(1,15,6): (1,14,6) 0.149323 (1,15,5) -8.794114E-03 (1,15,7) -8.761351E-03
(1,15,7): (1,14,7) 0.129724 (1,15,6) 8.761351E-03 (1,15,8) -2.142846E-02
(1,15,8): (1,14,8) 7.864852E-02 (1,15,7) 2.142846E-02 (1,15,9) -1.868161E-02
(1,15,9): (1,14,9) 3.674948E-02 (1,15,8) 1.868161E-02 (1,15,10) -9.299675E-03
(1,15,10): (1,14,10) 1.705709E-02 (1,15,9) 9.299675E-03

 WEL PACKAGE (WEL-1) FLOW RATES   PERIOD      2   STEP       34
 ----------------------------------------------------------------------------------------
   NUMBER   CELLID                    RATE       NAME                                    
 ----------------------------------------------------------------------------------------
     1      (1,8,6)              -219.42040      WEL                                     
 ----------------------------------------------------------------------------------------




 DRN PACKAGE (DRN-0) FLOW RATES   PERIOD      2   STEP       34
 ----------------------------------------------------------------------------------------
   NUMBER   CELLID                    RATE       NAME                                    
 ----------------------------------------------------------------------------------------
     1      (1,1,1)               0.0000000      SURF                                    
     2      (1,1,2)               0.0000000      SURF                                    
     3      (1,1,3)               0.0000000      SURF                                    
     4      (1,1,4)               0.0000000      SURF                                    
     5      (1,1,5)               0.0000000      SURF                                    
     6      (1,1,6)               0.0000000      SURF                                    
     7      (1,1,7)               0.0000000      SURF                                    
     8      (1,1,8)               0.0000000      SURF                                    
     9      (1,1,9)               0.0000000      SURF                                    
     10     (1,1,10)              0.0000000      SURF                                    
     11     (1,2,1)               0.0000000      SURF                                    
     12     (1,2,2)               0.0000000      SURF                                    
     13     (1,2,3)               0.0000000      SURF                                    
     14     (1,2,4)               0.0000000      SURF                                    
     15     (1,2,5)               0.0000000      SURF                                    
     16     (1,2,6)               0.0000000      SURF                                    
     17     (1,2,7)               0.0000000      SURF                                    
     18     (1,2,8)               0.0000000      SURF                                    
     19     (1,2,9)               0.0000000      SURF                                    
     20     (1,2,10)              0.0000000      SURF                                    
     21     (1,3,1)               0.0000000      SURF                                    
     22     (1,3,2)               0.0000000      SURF                                    
     23     (1,3,3)               0.0000000      SURF                                    
     24     (1,3,4)               0.0000000      SURF                                    
     25     (1,3,5)               0.0000000      SURF                                    
     26     (1,3,6)               0.0000000      SURF                                    
     27     (1,3,7)               0.0000000      SURF                                    
     28     (1,3,8)               0.0000000      SURF                                    
     29     (1,3,9)               0.0000000      SURF                                    
     30     (1,3,10)              0.0000000      SURF                                    
     31     (1,4,1)               0.0000000      SURF                                    
     32     (1,4,2)               0.0000000      SURF                                    
     33     (1,4,3)               0.0000000      SURF                                    
     34     (1,4,4)               0.0000000      SURF                                    
     35     (1,4,5)               0.0000000      SURF                                    
     36     (1,4,6)               0.0000000      SURF                                    
     37     (1,4,7)               0.0000000      SURF                                    
     38     (1,4,8)               0.0000000      SURF                                    
     39     (1,4,9)               0.0000000      SURF                                    
     40     (1,4,10)              0.0000000      SURF                                    
     41     (1,5,1)               0.0000000      SURF                                    
     42     (1,5,2)               0.0000000      SURF                                    
     43     (1,5,3)               0.0000000      SURF                                    
     44     (1,5,4)               0.0000000      SURF                                    
     45     (1,5,5)               0.0000000      SURF                                    
     46     (1,5,6)               0.0000000      SURF                                    
     47     (1,5,7)               0.0000000      SURF                                    
     48     (1,5,8)               0.0000000      SURF                                    
     49     (1,5,9)               0.0000000      SURF                                    
     50     (1,5,10)              0.0000000      SURF                                    
     51     (1,6,1)               0.0000000      SURF                                    
     52     (1,6,2)               0.0000000      SURF                                    
     53     (1,6,3)               0.0000000      SURF                                    
     54     (1,6,4)               0.0000000      SURF                                    
     55     (1,6,5)               0.0000000      SURF                                    
     56     (1,6,6)               0.0000000      SURF                                    
     57     (1,6,7)              -8.64383765E-09 SURF                                    
     58     (1,6,8)               0.0000000      SURF                                    
     59     (1,6,9)               0.0000000      SURF                                    
     60     (1,6,10)              0.0000000      SURF                                    
     61     (1,7,1)               0.0000000      SURF                                    
     62     (1,7,2)               0.0000000      SURF                                    
     63     (1,7,3)               0.0000000      SURF                                    
     64     (1,7,4)               0.0000000      SURF                                    
     65     (1,7,5)               0.0000000      SURF                                    
     66     (1,7,6)               0.0000000      SURF                                    
     67     (1,7,7)               0.0000000      SURF                                    
     68     (1,7,8)               0.0000000      SURF                                    
     69     (1,7,9)               0.0000000      SURF                                    
     70     (1,7,10)              0.0000000      SURF                                    
     71     (1,8,1)               0.0000000      SURF                                    
     72     (1,8,2)               0.0000000      SURF                                    
     73     (1,8,3)               0.0000000      SURF                                    
     74     (1,8,4)               0.0000000      SURF                                    
     75     (1,8,5)               0.0000000      SURF                                    
     76     (1,8,6)               0.0000000      SURF                                    
     77     (1,8,7)               0.0000000      SURF                                    
     78     (1,8,8)               0.0000000      SURF                                    
     79     (1,8,9)               0.0000000      SURF                                    
     80     (1,8,10)              0.0000000      SURF                                    
     81     (1,9,1)               0.0000000      SURF                                    
     82     (1,9,2)               0.0000000      SURF                                    
     83     (1,9,3)               0.0000000      SURF                                    
     84     (1,9,4)               0.0000000      SURF                                    
     85     (1,9,5)               0.0000000      SURF                                    
     86     (1,9,6)               0.0000000      SURF                                    
     87     (1,9,7)               0.0000000      SURF                                    
     88     (1,9,8)               0.0000000      SURF                                    
     89     (1,9,9)               0.0000000      SURF                                    
     90     (1,9,10)              0.0000000      SURF                                    
     91     (1,10,1)              0.0000000      SURF                                    
     92     (1,10,2)              0.0000000      SURF                                    
     93     (1,10,3)              0.0000000      SURF                                    
     94     (1,10,4)              0.0000000      SURF                                    
     95     (1,10,5)              0.0000000      SURF                                    
     96     (1,10,6)              0.0000000      SURF                                    
     97     (1,10,7)             -3.83806764E-07 SURF                                    
     98     (1,10,8)              0.0000000      SURF                                    
     99     (1,10,9)              0.0000000      SURF                                    
    100     (1,10,10)             0.0000000      SURF                                    
    101     (1,11,1)              0.0000000      SURF                                    
    102     (1,11,2)              0.0000000      SURF                                    
    103     (1,11,3)              0.0000000      SURF                                    
    104     (1,11,4)              0.0000000      SURF                                    
    105     (1,11,5)              0.0000000      SURF                                    
    106     (1,11,6)              0.0000000      SURF                                    
    107     (1,11,7)              0.0000000      SURF                                    
    108     (1,11,8)              0.0000000      SURF                                    
    109     (1,11,9)              0.0000000      SURF                                    
    110     (1,11,10)             0.0000000      SURF                                    
    111     (1,12,1)              0.0000000      SURF                                    
    112     (1,12,2)              0.0000000      SURF                                    
    113     (1,12,3)              0.0000000      SURF                                    
    114     (1,12,4)              0.0000000      SURF                                    
    115     (1,12,5)              0.0000000      SURF                                    
    116     (1,12,6)              0.0000000      SURF                                    
    117     (1,12,7)              0.0000000      SURF                                    
    118     (1,12,8)              0.0000000      SURF                                    
    119     (1,12,9)              0.0000000      SURF                                    
    120     (1,12,10)             0.0000000      SURF                                    
    121     (1,13,1)              0.0000000      SURF                                    
    122     (1,13,2)              0.0000000      SURF                                    
    123     (1,13,3)              0.0000000      SURF                                    
    124     (1,13,4)              0.0000000      SURF                                    
    125     (1,13,5)              0.0000000      SURF                                    
    126     (1,13,6)              0.0000000      SURF                                    
    127     (1,13,7)              0.0000000      SURF                                    
    128     (1,13,8)              0.0000000      SURF                                    
    129     (1,13,9)              0.0000000      SURF                                    
    130     (1,13,10)             0.0000000      SURF                                    
    131     (1,14,1)              0.0000000      SURF                                    
    132     (1,14,2)              0.0000000      SURF                                    
    133     (1,14,3)              0.0000000      SURF                                    
    134     (1,14,4)              0.0000000      SURF                                    
    135     (1,14,5)              0.0000000      SURF                                    
    136     (1,14,6)              0.0000000      SURF                                    
    137     (1,14,7)              0.0000000      SURF                                    
    138     (1,14,8)              0.0000000      SURF                                    
    139     (1,14,9)              0.0000000      SURF                                    
    140     (1,14,10)             0.0000000      SURF                                    
    141     (1,15,1)              0.0000000      SURF                                    
    142     (1,15,2)              0.0000000      SURF                                    
    143     (1,15,3)              0.0000000      SURF                                    
    144     (1,15,4)              0.0000000      SURF                                    
    145     (1,15,5)              0.0000000      SURF                                    
    146     (1,15,6)              0.0000000      SURF                                    
    147     (1,15,7)              0.0000000      SURF                                    
    148     (1,15,8)              0.0000000      SURF                                    
    149     (1,15,9)              0.0000000      SURF                                    
    150     (1,15,10)             0.0000000      SURF                                    
 ----------------------------------------------------------------------------------------




 API PACKAGE (MAR) FLOW RATES   PERIOD      2   STEP       34
 -----------------------------------------------
   NUMBER   CELLID                    RATE      
 -----------------------------------------------
     1      (1,6,5)               33.674339     
     2      (1,6,6)               33.674339     
     3      (1,6,7)               33.674339     
     4      (1,10,5)              33.991092     
     5      (1,10,6)              33.991092     
     6      (1,10,7)              33.991092     
 -----------------------------------------------



1
  HEAD IN LAYER   1 AT END OF TIME STEP  34 IN STRESS PERIOD    2
  ---------------------------------------------------------------------------

            1           2           3           4           5           6           7           8           9          10
 ........................................................................................................................
   1   4.9593E-04  1.1270E-03  2.6683E-03  5.2541E-03  8.0543E-03  9.2073E-03  8.0611E-03  5.2832E-03  2.7759E-03  1.4776E-03
   2   1.2662E-03  2.9894E-03  7.3498E-03  1.5004E-02  2.3649E-02  2.7068E-02  2.3665E-02  1.5075E-02  7.6194E-03  3.8955E-03
   3   3.3482E-03  8.2268E-03  2.1098E-02  4.5034E-02  7.3818E-02  8.4246E-02  7.3858E-02  4.5213E-02  2.1796E-02  1.0650E-02
   4   7.2509E-03  1.8623E-02  5.0331E-02  0.1146      0.2015      0.2267      0.2016      0.1150      5.1808E-02  2.3925E-02
   5   1.1529E-02  3.1049E-02  9.0037E-02  0.2292      0.4731      0.5062      0.4732      0.2298      9.2332E-02  3.9547E-02
   6   1.0529E-02  2.8732E-02  9.0534E-02  0.2920      0.9999      0.9046       1.000      0.2925      9.2634E-02  3.6456E-02
   7  -6.1312E-04 -9.6470E-03 -5.5371E-02 -0.2273     -0.7317      -1.986     -0.7316     -0.2271     -5.5195E-02 -1.0589E-02
   8  -8.9615E-03 -3.8430E-02 -0.1686     -0.6629      -2.411      -9.204      -2.411     -0.6631     -0.1699     -4.5851E-02
   9  -2.7626E-03 -1.3632E-02 -6.2351E-02 -0.2358     -0.7373      -1.991     -0.7373     -0.2358     -6.2682E-02 -1.6020E-02
  10   7.2383E-03  2.2695E-02  8.0338E-02  0.2814      0.9999      0.9071       1.000      0.2817      8.1667E-02  2.8219E-02
  11   8.4029E-03  2.5087E-02  7.9009E-02  0.2140      0.4583      0.4912      0.4584      0.2143      8.0577E-02  3.1477E-02
  12   5.1300E-03  1.4439E-02  4.2043E-02  0.1015      0.1851      0.2088      0.1851      0.1017      4.3031E-02  1.8301E-02
  13   2.2465E-03  6.0127E-03  1.6545E-02  3.7316E-02  6.3371E-02  7.2650E-02  6.3393E-02  3.7421E-02  1.6989E-02  7.6845E-03
  14   7.9564E-04  2.0374E-03  5.3588E-03  1.1531E-02  1.8796E-02  2.1632E-02  1.8804E-02  1.1570E-02  5.5201E-03  2.6227E-03
  15   2.8842E-04  7.0790E-04  1.7873E-03  3.6996E-03  5.8530E-03  6.7318E-03  5.8562E-03  3.7147E-03  1.8472E-03  9.1739E-04

 HEAD WILL BE SAVED ON UNIT 1100 AT END OF TIME STEP   34, STRESS PERIOD    2


  VOLUME BUDGET FOR ENTIRE MODEL AT END OF TIME STEP   34, STRESS PERIOD   2
  ---------------------------------------------------------------------------------------------------

     CUMULATIVE VOLUME      L**3       RATES FOR THIS TIME STEP      L**3/T          PACKAGE NAME    
     ------------------                 ------------------------                     ----------------

           IN:                                      IN:
           ---                                      ---
              STO-SS =          18.9580                STO-SS =       2.3327E-02     STORAGE                          
              STO-SY =       48631.5413                STO-SY =          52.0133     STORAGE                          
                 WEL =           0.0000                   WEL =           0.0000     WEL-1                            
                 DRN =           0.0000                   DRN =           0.0000     DRN-0                            
                 API =       68081.2445                   API =         202.9963     MAR                              
                 CHD =       2.0279E-08                   CHD =           0.0000     CHD_0                            

            TOTAL IN =      116731.7437              TOTAL IN =         255.0330

          OUT:                                     OUT:
          ----                                     ----
              STO-SS =          15.4245                STO-SS =       1.8053E-02     STORAGE                          
              STO-SY =       30011.5959                STO-SY =          35.5945     STORAGE                          
                 WEL =       86704.7232                   WEL =         219.4204     WEL-1                            
                 DRN =       1.0673E-04                   DRN =       3.9245E-07     DRN-0                            
                 API =           0.0000                   API =           0.0000     MAR                              
                 CHD =       2.0705E-08                   CHD =           0.0000     CHD_0                            

           TOTAL OUT =      116731.7437             TOTAL OUT =         255.0330

            IN - OUT =      -8.1681E-07              IN - OUT =      -3.0786E-09

 PERCENT DISCREPANCY =          -0.00     PERCENT DISCREPANCY =          -0.00




         TIME SUMMARY AT END OF TIME STEP   34 IN STRESS PERIOD    2
                    SECONDS     MINUTES      HOURS       DAYS        YEARS
                    -----------------------------------------------------------
   TIME STEP LENGTH 8.64000E+05  14400.      240.00      10.000     2.73785E-02
 STRESS PERIOD TIME 2.93760E+07 4.89600E+05  8160.0      340.00     0.93087    
         TOTAL TIME 2.94624E+07 4.91040E+05  8184.0      341.00     0.93361    


end timestep


start timestep kper="2" kstp="35" mode="normal"

 UBDSV1 SAVING           STO-SS ON UNIT   1099 AT TIME STEP     35, STRESS PERIOD      2
 UBDSV1 SAVING           STO-SY ON UNIT   1099 AT TIME STEP     35, STRESS PERIOD      2
 UBDSV1 SAVING     FLOW-JA-FACE ON UNIT   1099 AT TIME STEP     35, STRESS PERIOD      2
 UBDSV06 SAVING       DATA-SPDIS IN MODEL GWF              PACKAGE NPF             CONNECTED TO MODEL GWF              PACKAGE NPF              ON UNIT   1099 AT TIME STEP     35, STRESS PERIOD      2
 UBDSV06 SAVING              WEL IN MODEL GWF              PACKAGE GWF             CONNECTED TO MODEL GWF              PACKAGE WEL-1            ON UNIT   1099 AT TIME STEP     35, STRESS PERIOD      2
 UBDSV06 SAVING              DRN IN MODEL GWF              PACKAGE GWF             CONNECTED TO MODEL GWF              PACKAGE DRN-0            ON UNIT   1099 AT TIME STEP     35, STRESS PERIOD      2
 UBDSV06 SAVING              API IN MODEL GWF              PACKAGE GWF             CONNECTED TO MODEL GWF              PACKAGE MAR              ON UNIT   1099 AT TIME STEP     35, STRESS PERIOD      2
 UBDSV06 SAVING              CHD IN MODEL GWF              PACKAGE GWF             CONNECTED TO MODEL GWF              PACKAGE CHD_0            ON UNIT   1099 AT TIME STEP     35, STRESS PERIOD      2

    CALCULATED INTERCELL FLOW FOR PERIOD 2 STEP 35
(1,1,1): (1,1,2) 7.042771E-03 (1,2,1) 8.569811E-03
(1,1,2): (1,1,1) -7.042771E-03 (1,1,3) 1.697182E-02 (1,2,2) 2.030997E-02
(1,1,3): (1,1,2) -1.697182E-02 (1,1,4) 2.807488E-02 (1,2,3) 5.023470E-02
(1,1,4): (1,1,3) -2.807488E-02 (1,1,5) 3.007951E-02 (1,2,4) 0.103370
(1,1,5): (1,1,4) -3.007951E-02 (1,1,6) 1.237247E-02 (1,2,5) 0.164125
(1,1,6): (1,1,5) -1.237247E-02 (1,1,7) -1.228981E-02 (1,2,6) 0.187693
(1,1,7): (1,1,6) 1.228981E-02 (1,1,8) -2.981421E-02 (1,2,7) 0.164236
(1,1,8): (1,1,7) 2.981421E-02 (1,1,9) -2.716165E-02 (1,2,8) 0.103852
(1,1,9): (1,1,8) 2.716165E-02 (1,1,10) -1.420539E-02 (1,2,9) 5.206108E-02
(1,1,10): (1,1,9) 1.420539E-02 (1,2,10) 2.645074E-02
(1,2,1): (1,1,1) -8.569811E-03 (1,2,2) 1.878275E-02 (1,3,1) 2.272812E-02
(1,2,2): (1,1,2) -2.030997E-02 (1,2,1) -1.878275E-02 (1,2,3) 4.689555E-02 (1,3,2) 5.604390E-02
(1,2,3): (1,1,3) -5.023470E-02 (1,2,2) -4.689555E-02 (1,2,4) 8.119826E-02 (1,3,3) 0.144895
(1,2,4): (1,1,4) -0.103370 (1,2,3) -8.119826E-02 (1,2,5) 9.079093E-02 (1,3,4) 0.313348
(1,2,5): (1,1,5) -0.164125 (1,2,4) -9.079093E-02 (1,2,6) 3.590491E-02 (1,3,5) 0.520890
(1,2,6): (1,1,6) -0.187693 (1,2,5) -3.590491E-02 (1,2,7) -3.571180E-02 (1,3,6) 0.593321
(1,2,7): (1,1,7) -0.164236 (1,2,6) 3.571180E-02 (1,2,8) -9.015408E-02 (1,3,7) 0.521170
(1,2,8): (1,1,8) -0.103852 (1,2,7) 9.015408E-02 (1,2,9) -7.893947E-02 (1,3,8) 0.314578
(1,2,9): (1,1,9) -5.206108E-02 (1,2,8) 7.893947E-02 (1,2,10) -3.981259E-02 (1,3,9) 0.149656
(1,2,10): (1,1,10) -2.645074E-02 (1,2,9) 3.981259E-02 (1,3,10) 7.251768E-02
(1,3,1): (1,2,1) -2.272812E-02 (1,3,2) 5.209722E-02 (1,4,1) 4.158841E-02
(1,3,2): (1,2,2) -5.604390E-02 (1,3,1) -5.209722E-02 (1,3,3) 0.135739 (1,4,2) 0.108692
(1,3,3): (1,2,3) -0.144895 (1,3,2) -0.135739 (1,3,4) 0.249544 (1,4,3) 0.301959
(1,3,4): (1,2,4) -0.313348 (1,3,3) -0.249544 (1,3,5) 0.297880 (1,4,4) 0.716028
(1,3,5): (1,2,5) -0.520890 (1,3,4) -0.297880 (1,3,6) 0.107993 (1,4,5) 1.31727
(1,3,6): (1,2,6) -0.593321 (1,3,5) -0.107993 (1,3,7) -0.107522 (1,4,6) 1.47097
(1,3,7): (1,2,7) -0.521170 (1,3,6) 0.107522 (1,3,8) -0.296290 (1,4,7) 1.31776
(1,3,8): (1,2,8) -0.314578 (1,3,7) 0.296290 (1,3,9) -0.243746 (1,4,8) 0.718172
(1,3,9): (1,2,9) -0.149656 (1,3,8) 0.243746 (1,3,10) -0.116926 (1,4,9) 0.310457
(1,3,10): (1,2,10) -7.251768E-02 (1,3,9) 0.116926 (1,4,10) 0.139272
(1,4,1): (1,3,1) -4.158841E-02 (1,4,2) 0.119208 (1,5,1) 4.393603E-02
(1,4,2): (1,3,2) -0.108692 (1,4,1) -0.119208 (1,4,3) 0.329057 (1,5,2) 0.125574
(1,4,3): (1,3,3) -0.301959 (1,4,2) -0.329057 (1,4,4) 0.663401 (1,5,3) 0.399642
(1,4,4): (1,3,4) -0.716028 (1,4,3) -0.663401 (1,4,5) 0.896721 (1,5,4) 1.16660
(1,4,5): (1,3,5) -1.31727 (1,4,4) -0.896721 (1,4,6) 0.259946 (1,5,5) 2.83610
(1,4,6): (1,3,6) -1.47097 (1,4,5) -0.259946 (1,4,7) -0.258995 (1,5,6) 2.92447
(1,4,7): (1,3,7) -1.31776 (1,4,6) 0.258995 (1,4,8) -0.893457 (1,5,7) 2.83659
(1,4,8): (1,3,8) -0.718172 (1,4,7) 0.893457 (1,4,9) -0.651196 (1,5,8) 1.16873
(1,4,9): (1,3,9) -0.310457 (1,4,8) 0.651196 (1,4,10) -0.288072 (1,5,9) 0.408297
(1,4,10): (1,3,10) -0.139272 (1,4,9) 0.288072 (1,5,10) 0.158377
(1,5,1): (1,4,1) -4.393603E-02 (1,5,2) 0.200908 (1,6,1) -1.337245E-02
(1,5,2): (1,4,2) -0.125574 (1,5,1) -0.200908 (1,5,3) 0.603672 (1,6,2) -3.224007E-02
(1,5,3): (1,4,3) -0.399642 (1,5,2) -0.603672 (1,5,4) 1.43229 (1,6,3) -1.841722E-02
(1,5,4): (1,4,4) -1.16660 (1,5,3) -1.43229 (1,5,5) 2.56212 (1,6,4) 0.601342
(1,5,5): (1,4,5) -2.83610 (1,5,4) -2.56212 (1,5,6) 0.346467 (1,6,5) 5.75570
(1,5,6): (1,4,6) -2.92447 (1,5,5) -0.346467 (1,5,7) -0.345032 (1,6,6) 4.30462
(1,5,7): (1,4,7) -2.83659 (1,5,6) 0.345032 (1,5,8) -2.55714 (1,6,7) 5.75562
(1,5,8): (1,4,8) -1.16873 (1,5,7) 2.55714 (1,5,9) -1.41340 (1,6,8) 0.600762
(1,5,9): (1,4,9) -0.408297 (1,5,8) 1.41340 (1,5,10) -0.538310 (1,6,9) -2.104705E-02
(1,5,10): (1,4,10) -0.158377 (1,5,9) 0.538310 (1,6,10) -4.255703E-02
(1,6,1): (1,5,1) 1.337245E-02 (1,6,2) 0.182008 (1,7,1) -0.118863
(1,6,2): (1,5,2) 3.224007E-02 (1,6,1) -0.182008 (1,6,3) 0.617576 (1,7,2) -0.402321
(1,6,3): (1,5,3) 1.841722E-02 (1,6,2) -0.617576 (1,6,4) 2.06059 (1,7,3) -1.51542
(1,6,4): (1,5,4) -0.601342 (1,6,3) -2.06059 (1,6,5) 7.80298 (1,7,4) -5.43425
(1,6,5): (1,5,5) -5.75570 (1,6,4) -7.80298 (1,6,6) -1.05073 (1,7,5) -19.2118
(1,6,6): (1,5,6) -4.30462 (1,6,5) 1.05073 (1,6,7) 1.05211 (1,7,6) -31.6718
(1,6,7): (1,5,7) -5.75562 (1,6,6) -1.05211 (1,6,8) -7.79832 (1,7,7) -19.2129
(1,6,8): (1,5,8) -0.600762 (1,6,7) 7.79832 (1,6,9) -2.04368 (1,7,8) -5.43895
(1,6,9): (1,5,9) 2.104705E-02 (1,6,8) 2.04368 (1,6,10) -0.559931 (1,7,9) -1.53670
(1,6,10): (1,5,10) 4.255703E-02 (1,6,9) 0.559931 (1,7,10) -0.494858
(1,7,1): (1,6,1) 0.118863 (1,7,2) -0.100932 (1,8,1) -8.780874E-02
(1,7,2): (1,6,2) 0.402321 (1,7,1) 0.100932 (1,7,3) -0.488115 (1,8,2) -0.297174
(1,7,3): (1,6,3) 1.51542 (1,7,2) 0.488115 (1,7,4) -1.76591 (1,8,3) -1.14822
(1,7,4): (1,6,4) 5.43425 (1,7,3) 1.76591 (1,7,5) -4.96999 (1,8,4) -4.29413
(1,7,5): (1,6,5) 19.2118 (1,7,4) 4.96999 (1,7,6) -11.5989 (1,8,5) -15.5808
(1,7,6): (1,6,6) 31.6718 (1,7,5) 11.5989 (1,7,7) 11.5994 (1,8,6) -57.6580
(1,7,7): (1,6,7) 19.2129 (1,7,6) -11.5994 (1,7,8) 4.97085 (1,8,7) -15.5816
(1,7,8): (1,6,8) 5.43895 (1,7,7) -4.97085 (1,7,9) 1.76600 (1,8,8) -4.29763
(1,7,9): (1,6,9) 1.53670 (1,7,8) -1.76600 (1,7,10) 0.474204 (1,8,9) -1.16394
(1,7,10): (1,6,10) 0.494858 (1,7,9) -0.474204 (1,8,10) -0.364880
(1,8,1): (1,7,1) 8.780874E-02 (1,8,2) -0.310324 (1,9,1) 6.593118E-02
(1,8,2): (1,7,2) 0.297174 (1,8,1) 0.310324 (1,8,3) -1.34080 (1,9,2) 0.257690
(1,8,3): (1,7,3) 1.14822 (1,8,2) 1.34080 (1,8,4) -4.93197 (1,9,3) 1.08061
(1,8,4): (1,7,4) 4.29413 (1,8,3) 4.93197 (1,8,5) -16.3428 (1,9,4) 4.21244
(1,8,5): (1,7,5) 15.5808 (1,8,4) 16.3428 (1,8,6) -51.2991 (1,9,5) 15.5252
(1,8,6): (1,7,6) 57.6580 (1,8,5) 51.2991 (1,8,7) 51.2987 (1,9,6) 57.5987
(1,8,7): (1,7,7) 15.5816 (1,8,6) -51.2987 (1,8,8) 16.3406 (1,9,7) 15.5256
(1,8,8): (1,7,8) 4.29763 (1,8,7) -16.3406 (1,8,9) 4.91925 (1,9,8) 4.21431
(1,8,9): (1,7,9) 1.16394 (1,8,8) -4.91925 (1,8,10) 1.27415 (1,9,9) 1.09106
(1,8,10): (1,7,10) 0.364880 (1,8,9) -1.27415 (1,9,10) 0.310824
(1,9,1): (1,8,1) -6.593118E-02 (1,9,2) -0.118465 (1,10,1) 0.107103
(1,9,2): (1,8,2) -0.257690 (1,9,1) 0.118465 (1,9,3) -0.515742 (1,10,2) 0.381473
(1,9,3): (1,8,3) -1.08061 (1,9,2) 0.515742 (1,9,4) -1.77748 (1,10,3) 1.48199
(1,9,4): (1,8,4) -4.21244 (1,9,3) 1.77748 (1,9,5) -4.93734 (1,10,4) 5.40721
(1,9,5): (1,8,5) -15.5252 (1,9,4) 4.93734 (1,9,6) -11.5816 (1,10,5) 19.2685
(1,9,6): (1,8,6) -57.5987 (1,9,5) 11.5816 (1,9,7) 11.5816 (1,10,6) 31.7477
(1,9,7): (1,8,7) -15.5256 (1,9,6) -11.5816 (1,9,8) 4.93697 (1,10,7) 19.2693
(1,9,8): (1,8,8) -4.21431 (1,9,7) -4.93697 (1,9,9) 1.77385 (1,10,8) 5.41096
(1,9,9): (1,8,9) -1.09106 (1,9,8) -1.77385 (1,9,10) 0.492484 (1,10,9) 1.50037
(1,9,10): (1,8,10) -0.310824 (1,9,9) -0.492484 (1,10,10) 0.466148
(1,10,1): (1,9,1) -0.107103 (1,10,2) 0.155428 (1,11,1) 1.472847E-02
(1,10,2): (1,9,2) -0.381473 (1,10,1) -0.155428 (1,10,3) 0.577672 (1,11,2) 3.236824E-02
(1,10,3): (1,9,3) -1.48199 (1,10,2) -0.577672 (1,10,4) 2.05623 (1,11,3) 9.153885E-03
(1,10,4): (1,9,4) -5.40721 (1,10,3) -2.05623 (1,10,5) 7.91504 (1,11,4) -0.647792
(1,10,5): (1,9,5) -19.2685 (1,10,4) -7.91504 (1,10,6) -1.02483 (1,11,5) -5.91141
(1,10,6): (1,9,6) -31.7477 (1,10,5) 1.02483 (1,10,7) 1.02555 (1,11,6) -4.48649
(1,10,7): (1,9,7) -19.2693 (1,10,6) -1.02555 (1,10,8) -7.91231 (1,11,7) -5.91128
(1,10,8): (1,9,8) -5.41096 (1,10,7) 7.91231 (1,10,9) -2.04504 (1,11,8) -0.647090
(1,10,9): (1,9,9) -1.50037 (1,10,8) 2.04504 (1,10,10) -0.534365 (1,11,9) 1.216482E-02
(1,10,10): (1,9,10) -0.466148 (1,10,9) 0.534365 (1,11,10) 4.339636E-02
(1,11,1): (1,10,1) -1.472847E-02 (1,11,2) 0.173092 (1,12,1) -3.391110E-02
(1,11,2): (1,10,2) -3.236824E-02 (1,11,1) -0.173092 (1,11,3) 0.554332 (1,12,2) -0.108318
(1,11,3): (1,10,3) -9.153885E-03 (1,11,2) -0.554332 (1,11,4) 1.39053 (1,12,3) -0.373584
(1,11,4): (1,10,4) 0.647792 (1,11,3) -1.39053 (1,11,5) 2.56502 (1,12,4) -1.14690
(1,11,5): (1,10,5) 5.91141 (1,11,4) -2.56502 (1,11,6) 0.345170 (1,12,5) -2.85209
(1,11,6): (1,10,6) 4.48649 (1,11,5) -0.345170 (1,11,7) -0.344343 (1,12,6) -2.95306
(1,11,7): (1,10,7) 5.91128 (1,11,6) 0.344343 (1,11,8) -2.56181 (1,12,7) -2.85238
(1,11,8): (1,10,8) 0.647090 (1,11,7) 2.56181 (1,11,9) -1.37706 (1,12,8) -1.14826
(1,11,9): (1,10,9) -1.216482E-02 (1,11,8) 1.37706 (1,11,10) -0.502982 (1,12,9) -0.379787
(1,11,10): (1,10,10) -4.339636E-02 (1,11,9) 0.502982 (1,12,10) -0.134497
(1,12,1): (1,11,1) 3.391110E-02 (1,12,2) 9.863763E-02 (1,13,1) -3.113262E-02
(1,12,2): (1,11,2) 0.108318 (1,12,1) -9.863763E-02 (1,12,3) 0.288595 (1,13,2) -8.899861E-02
(1,12,3): (1,11,3) 0.373584 (1,12,2) -0.288595 (1,12,4) 0.615425 (1,13,3) -0.265303
(1,12,4): (1,11,4) 1.14690 (1,12,3) -0.615425 (1,12,5) 0.864222 (1,13,4) -0.662727
(1,12,5): (1,11,5) 2.85209 (1,12,4) -0.864222 (1,12,6) 0.246380 (1,13,5) -1.25816
(1,12,6): (1,11,6) 2.95306 (1,12,5) -0.246380 (1,12,7) -0.245833 (1,13,6) -1.40941
(1,12,7): (1,11,7) 2.85238 (1,12,6) 0.245833 (1,12,8) -0.862143 (1,13,7) -1.25844
(1,12,8): (1,11,8) 1.14826 (1,12,7) 0.862143 (1,12,9) -0.606910 (1,13,8) -0.664113
(1,12,9): (1,11,9) 0.379787 (1,12,8) 0.606910 (1,12,10) -0.257395 (1,13,9) -0.271307
(1,12,10): (1,11,10) 0.134497 (1,12,9) 0.257395 (1,13,10) -0.112541
(1,13,1): (1,12,1) 3.113262E-02 (1,13,2) 4.076608E-02 (1,14,1) -1.609644E-02
(1,13,2): (1,12,2) 8.899861E-02 (1,13,1) -4.076608E-02 (1,13,3) 0.112250 (1,14,2) -4.310684E-02
(1,13,3): (1,12,3) 0.265303 (1,13,2) -0.112250 (1,13,4) 0.218184 (1,14,3) -0.119156
(1,13,4): (1,12,4) 0.662727 (1,13,3) -0.218184 (1,13,5) 0.271030 (1,14,4) -0.271229
(1,13,5): (1,12,5) 1.25816 (1,13,4) -0.271030 (1,13,6) 9.677885E-02 (1,14,5) -0.465670
(1,13,6): (1,12,6) 1.40941 (1,13,5) -9.677885E-02 (1,13,7) -9.651722E-02 (1,14,6) -0.532645
(1,13,7): (1,12,7) 1.25844 (1,13,6) 9.651722E-02 (1,13,8) -0.270058 (1,14,7) -0.465830
(1,13,8): (1,12,8) 0.664113 (1,13,7) 0.270058 (1,13,9) -0.214323 (1,14,8) -0.271992
(1,13,9): (1,12,9) 0.271307 (1,13,8) 0.214323 (1,13,10) -9.865141E-02 (1,14,9) -0.122358
(1,13,10): (1,12,10) 0.112541 (1,13,9) 9.865141E-02 (1,14,10) -5.509162E-02
(1,14,1): (1,13,1) 1.609644E-02 (1,14,2) 1.375631E-02 (1,15,1) -5.751375E-03
(1,14,2): (1,13,2) 4.310684E-02 (1,14,1) -1.375631E-02 (1,14,3) 3.620644E-02 (1,15,2) -1.473647E-02
(1,14,3): (1,13,3) 0.119156 (1,14,2) -3.620644E-02 (1,14,4) 6.619018E-02 (1,15,3) -3.885824E-02
(1,14,4): (1,13,4) 0.271229 (1,14,3) -6.619018E-02 (1,14,5) 7.696199E-02 (1,15,4) -8.399957E-02
(1,14,5): (1,13,5) 0.465670 (1,14,4) -7.696199E-02 (1,14,6) 3.008897E-02 (1,15,5) -0.137578
(1,14,6): (1,13,6) 0.532645 (1,14,5) -3.008897E-02 (1,14,7) -2.998711E-02 (1,15,6) -0.158132
(1,14,7): (1,13,7) 0.465830 (1,14,6) 2.998711E-02 (1,14,8) -7.659390E-02 (1,15,7) -0.137639
(1,14,8): (1,13,8) 0.271992 (1,14,7) 7.659390E-02 (1,14,9) -6.477353E-02 (1,15,8) -8.428526E-02
(1,14,9): (1,13,9) 0.122358 (1,14,8) 6.477353E-02 (1,14,10) -3.140137E-02 (1,15,9) -4.002680E-02
(1,14,10): (1,13,10) 5.509162E-02 (1,14,9) 3.140137E-02 (1,15,10) -1.896792E-02
(1,15,1): (1,14,1) 5.751375E-03 (1,15,2) 4.771302E-03
(1,15,2): (1,14,2) 1.473647E-02 (1,15,1) -4.771302E-03 (1,15,3) 1.208531E-02
(1,15,3): (1,14,3) 3.885824E-02 (1,15,2) -1.208531E-02 (1,15,4) 2.105685E-02
(1,15,4): (1,14,4) 8.399957E-02 (1,15,3) -2.105685E-02 (1,15,5) 2.341597E-02
(1,15,5): (1,14,5) 0.137578 (1,15,4) -2.341597E-02 (1,15,6) 9.561259E-03
(1,15,6): (1,14,6) 0.158132 (1,15,5) -9.561259E-03 (1,15,7) -9.520324E-03
(1,15,7): (1,14,7) 0.137639 (1,15,6) 9.520324E-03 (1,15,8) -2.327267E-02
(1,15,8): (1,14,8) 8.428526E-02 (1,15,7) 2.327267E-02 (1,15,9) -2.052367E-02
(1,15,9): (1,14,9) 4.002680E-02 (1,15,8) 2.052367E-02 (1,15,10) -1.034430E-02
(1,15,10): (1,14,10) 1.896792E-02 (1,15,9) 1.034430E-02

 WEL PACKAGE (WEL-1) FLOW RATES   PERIOD      2   STEP       35
 ----------------------------------------------------------------------------------------
   NUMBER   CELLID                    RATE       NAME                                    
 ----------------------------------------------------------------------------------------
     1      (1,8,6)              -218.48640      WEL                                     
 ----------------------------------------------------------------------------------------




 DRN PACKAGE (DRN-0) FLOW RATES   PERIOD      2   STEP       35
 ----------------------------------------------------------------------------------------
   NUMBER   CELLID                    RATE       NAME                                    
 ----------------------------------------------------------------------------------------
     1      (1,1,1)               0.0000000      SURF                                    
     2      (1,1,2)               0.0000000      SURF                                    
     3      (1,1,3)               0.0000000      SURF                                    
     4      (1,1,4)               0.0000000      SURF                                    
     5      (1,1,5)               0.0000000      SURF                                    
     6      (1,1,6)               0.0000000      SURF                                    
     7      (1,1,7)               0.0000000      SURF                                    
     8      (1,1,8)               0.0000000      SURF                                    
     9      (1,1,9)               0.0000000      SURF                                    
     10     (1,1,10)              0.0000000      SURF                                    
     11     (1,2,1)               0.0000000      SURF                                    
     12     (1,2,2)               0.0000000      SURF                                    
     13     (1,2,3)               0.0000000      SURF                                    
     14     (1,2,4)               0.0000000      SURF                                    
     15     (1,2,5)               0.0000000      SURF                                    
     16     (1,2,6)               0.0000000      SURF                                    
     17     (1,2,7)               0.0000000      SURF                                    
     18     (1,2,8)               0.0000000      SURF                                    
     19     (1,2,9)               0.0000000      SURF                                    
     20     (1,2,10)              0.0000000      SURF                                    
     21     (1,3,1)               0.0000000      SURF                                    
     22     (1,3,2)               0.0000000      SURF                                    
     23     (1,3,3)               0.0000000      SURF                                    
     24     (1,3,4)               0.0000000      SURF                                    
     25     (1,3,5)               0.0000000      SURF                                    
     26     (1,3,6)               0.0000000      SURF                                    
     27     (1,3,7)               0.0000000      SURF                                    
     28     (1,3,8)               0.0000000      SURF                                    
     29     (1,3,9)               0.0000000      SURF                                    
     30     (1,3,10)              0.0000000      SURF                                    
     31     (1,4,1)               0.0000000      SURF                                    
     32     (1,4,2)               0.0000000      SURF                                    
     33     (1,4,3)               0.0000000      SURF                                    
     34     (1,4,4)               0.0000000      SURF                                    
     35     (1,4,5)               0.0000000      SURF                                    
     36     (1,4,6)               0.0000000      SURF                                    
     37     (1,4,7)               0.0000000      SURF                                    
     38     (1,4,8)               0.0000000      SURF                                    
     39     (1,4,9)               0.0000000      SURF                                    
     40     (1,4,10)              0.0000000      SURF                                    
     41     (1,5,1)               0.0000000      SURF                                    
     42     (1,5,2)               0.0000000      SURF                                    
     43     (1,5,3)               0.0000000      SURF                                    
     44     (1,5,4)               0.0000000      SURF                                    
     45     (1,5,5)               0.0000000      SURF                                    
     46     (1,5,6)               0.0000000      SURF                                    
     47     (1,5,7)               0.0000000      SURF                                    
     48     (1,5,8)               0.0000000      SURF                                    
     49     (1,5,9)               0.0000000      SURF                                    
     50     (1,5,10)              0.0000000      SURF                                    
     51     (1,6,1)               0.0000000      SURF                                    
     52     (1,6,2)               0.0000000      SURF                                    
     53     (1,6,3)               0.0000000      SURF                                    
     54     (1,6,4)               0.0000000      SURF                                    
     55     (1,6,5)               0.0000000      SURF                                    
     56     (1,6,6)               0.0000000      SURF                                    
     57     (1,6,7)              -8.70204531E-09 SURF                                    
     58     (1,6,8)               0.0000000      SURF                                    
     59     (1,6,9)               0.0000000      SURF                                    
     60     (1,6,10)              0.0000000      SURF                                    
     61     (1,7,1)               0.0000000      SURF                                    
     62     (1,7,2)               0.0000000      SURF                                    
     63     (1,7,3)               0.0000000      SURF                                    
     64     (1,7,4)               0.0000000      SURF                                    
     65     (1,7,5)               0.0000000      SURF                                    
     66     (1,7,6)               0.0000000      SURF                                    
     67     (1,7,7)               0.0000000      SURF                                    
     68     (1,7,8)               0.0000000      SURF                                    
     69     (1,7,9)               0.0000000      SURF                                    
     70     (1,7,10)              0.0000000      SURF                                    
     71     (1,8,1)               0.0000000      SURF                                    
     72     (1,8,2)               0.0000000      SURF                                    
     73     (1,8,3)               0.0000000      SURF                                    
     74     (1,8,4)               0.0000000      SURF                                    
     75     (1,8,5)               0.0000000      SURF                                    
     76     (1,8,6)               0.0000000      SURF                                    
     77     (1,8,7)               0.0000000      SURF                                    
     78     (1,8,8)               0.0000000      SURF                                    
     79     (1,8,9)               0.0000000      SURF                                    
     80     (1,8,10)              0.0000000      SURF                                    
     81     (1,9,1)               0.0000000      SURF                                    
     82     (1,9,2)               0.0000000      SURF                                    
     83     (1,9,3)               0.0000000      SURF                                    
     84     (1,9,4)               0.0000000      SURF                                    
     85     (1,9,5)               0.0000000      SURF                                    
     86     (1,9,6)               0.0000000      SURF                                    
     87     (1,9,7)               0.0000000      SURF                                    
     88     (1,9,8)               0.0000000      SURF                                    
     89     (1,9,9)               0.0000000      SURF                                    
     90     (1,9,10)              0.0000000      SURF                                    
     91     (1,10,1)              0.0000000      SURF                                    
     92     (1,10,2)              0.0000000      SURF                                    
     93     (1,10,3)              0.0000000      SURF                                    
     94     (1,10,4)              0.0000000      SURF                                    
     95     (1,10,5)              0.0000000      SURF                                    
     96     (1,10,6)              0.0000000      SURF                                    
     97     (1,10,7)             -3.80983693E-07 SURF                                    
     98     (1,10,8)              0.0000000      SURF                                    
     99     (1,10,9)              0.0000000      SURF                                    
    100     (1,10,10)             0.0000000      SURF                                    
    101     (1,11,1)              0.0000000      SURF                                    
    102     (1,11,2)              0.0000000      SURF                                    
    103     (1,11,3)              0.0000000      SURF                                    
    104     (1,11,4)              0.0000000      SURF                                    
    105     (1,11,5)              0.0000000      SURF                                    
    106     (1,11,6)              0.0000000      SURF                                    
    107     (1,11,7)              0.0000000      SURF                                    
    108     (1,11,8)              0.0000000      SURF                                    
    109     (1,11,9)              0.0000000      SURF                                    
    110     (1,11,10)             0.0000000      SURF                                    
    111     (1,12,1)              0.0000000      SURF                                    
    112     (1,12,2)              0.0000000      SURF                                    
    113     (1,12,3)              0.0000000      SURF                                    
    114     (1,12,4)              0.0000000      SURF                                    
    115     (1,12,5)              0.0000000      SURF                                    
    116     (1,12,6)              0.0000000      SURF                                    
    117     (1,12,7)              0.0000000      SURF                                    
    118     (1,12,8)              0.0000000      SURF                                    
    119     (1,12,9)              0.0000000      SURF                                    
    120     (1,12,10)             0.0000000      SURF                                    
    121     (1,13,1)              0.0000000      SURF                                    
    122     (1,13,2)              0.0000000      SURF                                    
    123     (1,13,3)              0.0000000      SURF                                    
    124     (1,13,4)              0.0000000      SURF                                    
    125     (1,13,5)              0.0000000      SURF                                    
    126     (1,13,6)              0.0000000      SURF                                    
    127     (1,13,7)              0.0000000      SURF                                    
    128     (1,13,8)              0.0000000      SURF                                    
    129     (1,13,9)              0.0000000      SURF                                    
    130     (1,13,10)             0.0000000      SURF                                    
    131     (1,14,1)              0.0000000      SURF                                    
    132     (1,14,2)              0.0000000      SURF                                    
    133     (1,14,3)              0.0000000      SURF                                    
    134     (1,14,4)              0.0000000      SURF                                    
    135     (1,14,5)              0.0000000      SURF                                    
    136     (1,14,6)              0.0000000      SURF                                    
    137     (1,14,7)              0.0000000      SURF                                    
    138     (1,14,8)              0.0000000      SURF                                    
    139     (1,14,9)              0.0000000      SURF                                    
    140     (1,14,10)             0.0000000      SURF                                    
    141     (1,15,1)              0.0000000      SURF                                    
    142     (1,15,2)              0.0000000      SURF                                    
    143     (1,15,3)              0.0000000      SURF                                    
    144     (1,15,4)              0.0000000      SURF                                    
    145     (1,15,5)              0.0000000      SURF                                    
    146     (1,15,6)              0.0000000      SURF                                    
    147     (1,15,7)              0.0000000      SURF                                    
    148     (1,15,8)              0.0000000      SURF                                    
    149     (1,15,9)              0.0000000      SURF                                    
    150     (1,15,10)             0.0000000      SURF                                    
 ----------------------------------------------------------------------------------------




 API PACKAGE (MAR) FLOW RATES   PERIOD      2   STEP       35
 -----------------------------------------------
   NUMBER   CELLID                    RATE      
 -----------------------------------------------
     1      (1,6,5)               33.818923     
     2      (1,6,6)               33.818923     
     3      (1,6,7)               33.818923     
     4      (1,10,5)              34.118396     
     5      (1,10,6)              34.118396     
     6      (1,10,7)              34.118396     
 -----------------------------------------------



1
  HEAD IN LAYER   1 AT END OF TIME STEP  35 IN STRESS PERIOD    2
  ---------------------------------------------------------------------------

            1           2           3           4           5           6           7           8           9          10
 ........................................................................................................................
   1   5.7395E-04  1.2781E-03  2.9748E-03  5.7807E-03  8.7860E-03  1.0022E-02  8.7942E-03  5.8154E-03  3.1009E-03  1.6808E-03
   2   1.4308E-03  3.3085E-03  7.9943E-03  1.6101E-02  2.5157E-02  2.8738E-02  2.5177E-02  1.6184E-02  8.3027E-03  4.3247E-03
   3   3.7028E-03  8.9079E-03  2.2451E-02  4.7288E-02  7.6849E-02  8.7555E-02  7.6896E-02  4.7493E-02  2.3234E-02  1.1568E-02
   4   7.8584E-03  1.9756E-02  5.2490E-02  0.1181      0.2059      0.2313      0.2060      0.1185      5.4112E-02  2.5460E-02
   5   1.2247E-02  3.2273E-02  9.2089E-02  0.2321      0.4766      0.5096      0.4768      0.2327      9.4559E-02  4.1233E-02
   6   1.0911E-02  2.9059E-02  9.0264E-02  0.2905      0.9999      0.9044       1.000      0.2911      9.2474E-02  3.6994E-02
   7  -9.6233E-04 -1.1056E-02 -5.9922E-02 -0.2376     -0.7467      -2.000     -0.7466     -0.2374     -5.9788E-02 -1.2309E-02
   8  -9.7440E-03 -4.0807E-02 -0.1754     -0.6774      -2.430      -9.208      -2.431     -0.6777     -0.1769     -4.8842E-02
   9  -3.1489E-03 -1.4999E-02 -6.6651E-02 -0.2456     -0.7518      -2.004     -0.7518     -0.2456     -6.7040E-02 -1.7704E-02
  10   7.5534E-03  2.3060E-02  8.0367E-02  0.2804      0.9999      0.9068       1.000      0.2807      8.1780E-02  2.8777E-02
  11   9.0249E-03  2.6289E-02  8.1275E-02  0.2174      0.4625      0.4954      0.4626      0.2178      8.2986E-02  3.3102E-02
  12   5.6368E-03  1.5485E-02  4.4218E-02  0.1051      0.1899      0.2141      0.1900      0.1054      4.5320E-02  1.9697E-02
  13   2.5253E-03  6.5992E-03  1.7804E-02  3.9537E-02  6.6461E-02  7.6066E-02  6.6487E-02  3.9659E-02  1.8312E-02  8.4646E-03
  14   9.1609E-04  2.2914E-03  5.9099E-03  1.2521E-02  2.0201E-02  2.3203E-02  2.0211E-02  1.2568E-02  6.0983E-03  2.9601E-03
  15   3.4100E-04  8.1809E-04  2.0264E-03  4.1312E-03  6.4713E-03  7.4267E-03  6.4754E-03  4.1496E-03  2.0981E-03  1.0639E-03

 HEAD WILL BE SAVED ON UNIT 1100 AT END OF TIME STEP   35, STRESS PERIOD    2


  VOLUME BUDGET FOR ENTIRE MODEL AT END OF TIME STEP   35, STRESS PERIOD   2
  ---------------------------------------------------------------------------------------------------

     CUMULATIVE VOLUME      L**3       RATES FOR THIS TIME STEP      L**3/T          PACKAGE NAME    
     ------------------                 ------------------------                     ----------------

           IN:                                      IN:
           ---                                      ---
              STO-SS =          19.1806                STO-SS =       2.2266E-02     STORAGE                          
              STO-SY =       49127.1459                STO-SY =          49.5605     STORAGE                          
                 WEL =           0.0000                   WEL =           0.0000     WEL-1                            
                 DRN =           0.0000                   DRN =           0.0000     DRN-0                            
                 API =       70119.3641                   API =         203.8120     MAR                              
                 CHD =       2.0279E-08                   CHD =           0.0000     CHD_0                            

            TOTAL IN =      119265.6905              TOTAL IN =         253.3947

          OUT:                                     OUT:
          ----                                     ----
              STO-SS =          15.6014                STO-SS =       1.7696E-02     STORAGE                          
              STO-SY =       30360.5018                STO-SY =          34.8906     STORAGE                          
                 WEL =       88889.5872                   WEL =         218.4864     WEL-1                            
                 DRN =       1.1063E-04                   DRN =       3.8969E-07     DRN-0                            
                 API =           0.0000                   API =           0.0000     MAR                              
                 CHD =       2.0705E-08                   CHD =           0.0000     CHD_0                            

           TOTAL OUT =      119265.6905             TOTAL OUT =         253.3947

            IN - OUT =      -8.4765E-07              IN - OUT =      -3.0853E-09

 PERCENT DISCREPANCY =          -0.00     PERCENT DISCREPANCY =          -0.00




         TIME SUMMARY AT END OF TIME STEP   35 IN STRESS PERIOD    2
                    SECONDS     MINUTES      HOURS       DAYS        YEARS
                    -----------------------------------------------------------
   TIME STEP LENGTH 8.64000E+05  14400.      240.00      10.000     2.73785E-02
 STRESS PERIOD TIME 3.02400E+07 5.04000E+05  8400.0      350.00     0.95825    
         TOTAL TIME 3.03264E+07 5.05440E+05  8424.0      351.00     0.96099    


end timestep


start timestep kper="2" kstp="36" mode="normal"

 UBDSV1 SAVING           STO-SS ON UNIT   1099 AT TIME STEP     36, STRESS PERIOD      2
 UBDSV1 SAVING           STO-SY ON UNIT   1099 AT TIME STEP     36, STRESS PERIOD      2
 UBDSV1 SAVING     FLOW-JA-FACE ON UNIT   1099 AT TIME STEP     36, STRESS PERIOD      2
 UBDSV06 SAVING       DATA-SPDIS IN MODEL GWF              PACKAGE NPF             CONNECTED TO MODEL GWF              PACKAGE NPF              ON UNIT   1099 AT TIME STEP     36, STRESS PERIOD      2
 UBDSV06 SAVING              WEL IN MODEL GWF              PACKAGE GWF             CONNECTED TO MODEL GWF              PACKAGE WEL-1            ON UNIT   1099 AT TIME STEP     36, STRESS PERIOD      2
 UBDSV06 SAVING              DRN IN MODEL GWF              PACKAGE GWF             CONNECTED TO MODEL GWF              PACKAGE DRN-0            ON UNIT   1099 AT TIME STEP     36, STRESS PERIOD      2
 UBDSV06 SAVING              API IN MODEL GWF              PACKAGE GWF             CONNECTED TO MODEL GWF              PACKAGE MAR              ON UNIT   1099 AT TIME STEP     36, STRESS PERIOD      2
 UBDSV06 SAVING              CHD IN MODEL GWF              PACKAGE GWF             CONNECTED TO MODEL GWF              PACKAGE CHD_0            ON UNIT   1099 AT TIME STEP     36, STRESS PERIOD      2

    CALCULATED INTERCELL FLOW FOR PERIOD 2 STEP 36
(1,1,1): (1,1,2) 7.818789E-03 (1,2,1) 9.483745E-03
(1,1,2): (1,1,1) -7.818789E-03 (1,1,3) 1.860128E-02 (1,2,2) 2.204362E-02
(1,1,3): (1,1,2) -1.860128E-02 (1,1,4) 3.035181E-02 (1,2,3) 5.365924E-02
(1,1,4): (1,1,3) -3.035181E-02 (1,1,5) 3.218177E-02 (1,2,4) 0.109081
(1,1,5): (1,1,4) -3.218177E-02 (1,1,6) 1.322121E-02 (1,2,5) 0.171852
(1,1,6): (1,1,5) -1.322121E-02 (1,1,7) -1.312145E-02 (1,2,6) 0.196178
(1,1,7): (1,1,6) 1.312145E-02 (1,1,8) -3.186891E-02 (1,2,7) 0.171980
(1,1,8): (1,1,7) 3.186891E-02 (1,1,9) -2.929703E-02 (1,2,8) 0.109631
(1,1,9): (1,1,8) 2.929703E-02 (1,1,10) -1.546923E-02 (1,2,9) 5.570389E-02
(1,1,10): (1,1,9) 1.546923E-02 (1,2,10) 2.879159E-02
(1,2,1): (1,1,1) -9.483745E-03 (1,2,2) 2.037846E-02 (1,3,1) 2.468967E-02
(1,2,2): (1,1,2) -2.204362E-02 (1,2,1) -2.037846E-02 (1,2,3) 5.021581E-02 (1,3,2) 5.969644E-02
(1,2,3): (1,1,3) -5.365924E-02 (1,2,2) -5.021581E-02 (1,2,4) 8.576087E-02 (1,3,3) 0.151923
(1,2,4): (1,1,4) -0.109081 (1,2,3) -8.576087E-02 (1,2,5) 9.490438E-02 (1,3,4) 0.324705
(1,2,5): (1,1,5) -0.171852 (1,2,4) -9.490438E-02 (1,2,6) 3.750889E-02 (1,3,5) 0.535830
(1,2,6): (1,1,6) -0.196178 (1,2,5) -3.750889E-02 (1,2,7) -3.728081E-02 (1,3,6) 0.609427
(1,2,7): (1,1,7) -0.171980 (1,2,6) 3.728081E-02 (1,2,8) -9.416981E-02 (1,3,7) 0.536148
(1,2,8): (1,1,8) -0.109631 (1,2,7) 9.416981E-02 (1,2,9) -8.321011E-02 (1,3,8) 0.326085
(1,2,9): (1,1,9) -5.570389E-02 (1,2,8) 8.321011E-02 (1,2,10) -4.237794E-02 (1,3,9) 0.157157
(1,2,10): (1,1,10) -2.879159E-02 (1,2,9) 4.237794E-02 (1,3,10) 7.746857E-02
(1,3,1): (1,2,1) -2.468967E-02 (1,3,2) 5.538372E-02 (1,4,1) 4.410802E-02
(1,3,2): (1,2,2) -5.969644E-02 (1,3,1) -5.538372E-02 (1,3,3) 0.142433 (1,4,2) 0.113076
(1,3,3): (1,2,3) -0.151923 (1,3,2) -0.142433 (1,3,4) 0.258430 (1,4,3) 0.309622
(1,3,4): (1,2,4) -0.324705 (1,3,3) -0.258430 (1,3,5) 0.305552 (1,4,4) 0.727106
(1,3,5): (1,2,5) -0.535830 (1,3,4) -0.305552 (1,3,6) 0.110749 (1,4,5) 1.33071
(1,3,6): (1,2,6) -0.609427 (1,3,5) -0.110749 (1,3,7) -0.110203 (1,4,6) 1.48440
(1,3,7): (1,2,7) -0.536148 (1,3,6) 0.110203 (1,3,8) -0.303755 (1,4,7) 1.33125
(1,3,8): (1,2,8) -0.326085 (1,3,7) 0.303755 (1,3,9) -0.252015 (1,4,8) 0.729454
(1,3,9): (1,2,9) -0.157157 (1,3,8) 0.252015 (1,3,10) -0.122038 (1,4,9) 0.318745
(1,3,10): (1,2,10) -7.746857E-02 (1,3,9) 0.122038 (1,4,10) 0.145292
(1,4,1): (1,3,1) -4.410802E-02 (1,4,2) 0.124359 (1,5,1) 4.487370E-02
(1,4,2): (1,3,2) -0.113076 (1,4,1) -0.124359 (1,4,3) 0.339037 (1,5,2) 0.126107
(1,4,3): (1,3,3) -0.309622 (1,4,2) -0.339037 (1,4,4) 0.675706 (1,5,3) 0.397886
(1,4,4): (1,3,4) -0.727106 (1,4,3) -0.675706 (1,4,5) 0.906723 (1,5,4) 1.15999
(1,4,5): (1,3,5) -1.33071 (1,4,4) -0.906723 (1,4,6) 0.262694 (1,5,5) 2.82731
(1,4,6): (1,3,6) -1.48440 (1,4,5) -0.262694 (1,4,7) -0.261613 (1,5,6) 2.91276
(1,4,7): (1,3,7) -1.33125 (1,4,6) 0.261613 (1,4,8) -0.903101 (1,5,7) 2.82785
(1,4,8): (1,3,8) -0.729454 (1,4,7) 0.903101 (1,4,9) -0.662457 (1,5,8) 1.16224
(1,4,9): (1,3,9) -0.318745 (1,4,8) 0.662457 (1,4,10) -0.295452 (1,5,9) 0.406831
(1,4,10): (1,3,10) -0.145292 (1,4,9) 0.295452 (1,5,10) 0.159391
(1,5,1): (1,4,1) -4.487370E-02 (1,5,2) 0.205657 (1,6,1) -1.698270E-02
(1,5,2): (1,4,2) -0.126107 (1,5,1) -0.205657 (1,5,3) 0.611383 (1,6,2) -4.157782E-02
(1,5,3): (1,4,3) -0.397886 (1,5,2) -0.611383 (1,5,4) 1.43983 (1,6,3) -4.195566E-02
(1,5,4): (1,4,4) -1.15999 (1,5,3) -1.43983 (1,5,5) 2.57021 (1,6,4) 0.558274
(1,5,5): (1,4,5) -2.82731 (1,5,4) -2.57021 (1,5,6) 0.346359 (1,6,5) 5.71885
(1,5,6): (1,4,6) -2.91276 (1,5,5) -0.346359 (1,5,7) -0.344756 (1,6,6) 4.26742
(1,5,7): (1,4,7) -2.82785 (1,5,6) 0.344756 (1,5,8) -2.56479 (1,6,7) 5.71874
(1,5,8): (1,4,8) -1.16224 (1,5,7) 2.56479 (1,5,9) -1.41970 (1,6,8) 0.557516
(1,5,9): (1,4,9) -0.406831 (1,5,8) 1.41970 (1,5,10) -0.543222 (1,6,9) -4.531832E-02
(1,5,10): (1,4,10) -0.159391 (1,5,9) 0.543222 (1,6,10) -5.459090E-02
(1,6,1): (1,5,1) 1.698270E-02 (1,6,2) 0.181022 (1,7,1) -0.126332
(1,6,2): (1,5,2) 4.157782E-02 (1,6,1) -0.181022 (1,6,3) 0.611005 (1,7,2) -0.419669
(1,6,3): (1,5,3) 4.195566E-02 (1,6,2) -0.611005 (1,6,4) 2.04850 (1,7,3) -1.55740
(1,6,4): (1,5,4) -0.558274 (1,6,3) -2.04850 (1,6,5) 7.81973 (1,7,4) -5.52013
(1,6,5): (1,5,5) -5.71885 (1,6,4) -7.81973 (1,6,6) -1.05162 (1,7,5) -19.3652
(1,6,6): (1,5,6) -4.26742 (1,6,5) 1.05162 (1,6,7) 1.05313 (1,7,6) -31.8089
(1,6,7): (1,5,7) -5.71874 (1,6,6) -1.05313 (1,6,8) -7.81475 (1,7,7) -19.3664
(1,6,8): (1,5,8) -0.557516 (1,6,7) 7.81475 (1,6,9) -2.03092 (1,7,8) -5.52527
(1,6,9): (1,5,9) 4.531832E-02 (1,6,8) 2.03092 (1,6,10) -0.552541 (1,7,9) -1.58030
(1,6,10): (1,5,10) 5.459090E-02 (1,6,9) 0.552541 (1,7,10) -0.517523
(1,7,1): (1,6,1) 0.126332 (1,7,2) -0.111744 (1,8,1) -9.213307E-02
(1,7,2): (1,6,2) 0.419669 (1,7,1) 0.111744 (1,7,3) -0.518870 (1,8,2) -0.306560
(1,7,3): (1,6,3) 1.55740 (1,7,2) 0.518870 (1,7,4) -1.81880 (1,8,3) -1.16910
(1,7,4): (1,6,4) 5.52013 (1,7,3) 1.81880 (1,7,5) -5.00395 (1,8,4) -4.32799
(1,7,5): (1,6,5) 19.3652 (1,7,4) 5.00395 (1,7,6) -11.5696 (1,8,5) -15.5933
(1,7,6): (1,6,6) 31.8089 (1,7,5) 11.5696 (1,7,7) 11.5702 (1,8,6) -57.4882
(1,7,7): (1,6,7) 19.3664 (1,7,6) -11.5702 (1,7,8) 5.00479 (1,8,7) -15.5942
(1,7,8): (1,6,8) 5.52527 (1,7,7) -5.00479 (1,7,9) 1.81837 (1,8,8) -4.33176
(1,7,9): (1,6,9) 1.58030 (1,7,8) -1.81837 (1,7,10) 0.502065 (1,8,9) -1.18578
(1,7,10): (1,6,10) 0.517523 (1,7,9) -0.502065 (1,8,10) -0.377240
(1,8,1): (1,7,1) 9.213307E-02 (1,8,2) -0.326214 (1,9,1) 6.992607E-02
(1,8,2): (1,7,2) 0.306560 (1,8,1) 0.326214 (1,8,3) -1.38326 (1,9,2) 0.267539
(1,8,3): (1,7,3) 1.16910 (1,8,2) 1.38326 (1,8,4) -4.99901 (1,9,3) 1.10393
(1,8,4): (1,7,4) 4.32799 (1,8,3) 4.99901 (1,8,5) -16.3555 (1,9,4) 4.25101
(1,8,5): (1,7,5) 15.5933 (1,8,4) 16.3555 (1,8,6) -51.0650 (1,9,5) 15.5426
(1,8,6): (1,7,6) 57.4882 (1,8,5) 51.0650 (1,8,7) 51.0645 (1,9,6) 57.4357
(1,8,7): (1,7,7) 15.5942 (1,8,6) -51.0645 (1,8,8) 16.3530 (1,9,7) 15.5429
(1,8,8): (1,7,8) 4.33176 (1,8,7) -16.3530 (1,8,9) 4.98503 (1,9,8) 4.25307
(1,8,9): (1,7,9) 1.18578 (1,8,8) -4.98503 (1,8,10) 1.31162 (1,9,9) 1.11519
(1,8,10): (1,7,10) 0.377240 (1,8,9) -1.31162 (1,9,10) 0.323605
(1,9,1): (1,8,1) -6.992607E-02 (1,9,2) -0.128485 (1,10,1) 0.114278
(1,9,2): (1,8,2) -0.267539 (1,9,1) 0.128485 (1,9,3) -0.544526 (1,10,2) 0.398779
(1,9,3): (1,8,3) -1.10393 (1,9,2) 0.544526 (1,9,4) -1.82822 (1,10,3) 1.52445
(1,9,4): (1,8,4) -4.25101 (1,9,3) 1.82822 (1,9,5) -4.97174 (1,10,4) 5.49320
(1,9,5): (1,8,5) -15.5426 (1,9,4) 4.97174 (1,9,6) -11.5528 (1,10,5) 19.4172
(1,9,6): (1,8,6) -57.4357 (1,9,5) 11.5528 (1,9,7) 11.5529 (1,10,6) 31.8792
(1,9,7): (1,8,7) -15.5429 (1,9,6) -11.5529 (1,9,8) 4.97129 (1,10,7) 19.4180
(1,9,8): (1,8,8) -4.25307 (1,9,7) -4.97129 (1,9,9) 1.82401 (1,10,8) 5.49734
(1,9,9): (1,8,9) -1.11519 (1,9,8) -1.82401 (1,9,10) 0.518481 (1,10,9) 1.54433
(1,9,10): (1,8,10) -0.323605 (1,9,9) -0.518481 (1,10,10) 0.488663
(1,10,1): (1,9,1) -0.114278 (1,10,2) 0.155492 (1,11,1) 1.804915E-02
(1,10,2): (1,9,2) -0.398779 (1,10,1) -0.155492 (1,10,3) 0.573603 (1,11,2) 4.112429E-02
(1,10,3): (1,9,3) -1.52445 (1,10,2) -0.573603 (1,10,4) 2.04594 (1,11,3) 3.190905E-02
(1,10,4): (1,9,4) -5.49320 (1,10,3) -2.04594 (1,10,5) 7.92685 (1,11,4) -0.604048
(1,10,5): (1,9,5) -19.4172 (1,10,4) -7.92685 (1,10,6) -1.02639 (1,11,5) -5.86768
(1,10,6): (1,9,6) -31.8792 (1,10,5) 1.02639 (1,10,7) 1.02719 (1,11,6) -4.44084
(1,10,7): (1,9,7) -19.4180 (1,10,6) -1.02719 (1,10,8) -7.92390 (1,11,7) -5.86752
(1,10,8): (1,9,8) -5.49734 (1,10,7) 7.92390 (1,10,9) -2.03420 (1,11,8) -0.603184
(1,10,9): (1,9,9) -1.54433 (1,10,8) 2.03420 (1,10,10) -0.529364 (1,11,9) 3.558709E-02
(1,10,10): (1,9,10) -0.488663 (1,10,9) 0.529364 (1,11,10) 5.463420E-02
(1,11,1): (1,10,1) -1.804915E-02 (1,11,2) 0.178599 (1,12,1) -3.492219E-02
(1,11,2): (1,10,2) -4.112429E-02 (1,11,1) -0.178599 (1,11,3) 0.564339 (1,12,2) -0.109505
(1,11,3): (1,10,3) -3.190905E-02 (1,11,2) -0.564339 (1,11,4) 1.40131 (1,12,3) -0.373732
(1,11,4): (1,10,4) 0.604048 (1,11,3) -1.40131 (1,11,5) 2.57436 (1,12,4) -1.14321
(1,11,5): (1,10,5) 5.86768 (1,11,4) -2.57436 (1,11,6) 0.345968 (1,12,5) -2.84535
(1,11,6): (1,10,6) 4.44084 (1,11,5) -0.345968 (1,11,7) -0.345029 (1,12,6) -2.94321
(1,11,7): (1,10,7) 5.86752 (1,11,6) 0.345029 (1,11,8) -2.57081 (1,12,7) -2.84566
(1,11,8): (1,10,8) 0.603184 (1,11,7) 2.57081 (1,11,9) -1.38678 (1,12,8) -1.14466
(1,11,9): (1,10,9) -3.558709E-02 (1,11,8) 1.38678 (1,11,10) -0.510227 (1,12,9) -0.380207
(1,11,10): (1,10,10) -5.463420E-02 (1,11,9) 0.510227 (1,12,10) -0.136302
(1,12,1): (1,11,1) 3.492219E-02 (1,12,2) 0.103965 (1,13,1) -3.342888E-02
(1,12,2): (1,11,2) 0.109505 (1,12,1) -0.103965 (1,12,3) 0.299618 (1,13,2) -9.349175E-02
(1,12,3): (1,11,3) 0.373732 (1,12,2) -0.299618 (1,12,4) 0.629945 (1,13,3) -0.274068
(1,12,4): (1,11,4) 1.14321 (1,12,3) -0.629945 (1,12,5) 0.876366 (1,13,4) -0.676504
(1,12,5): (1,11,5) 2.84535 (1,12,4) -0.876366 (1,12,6) 0.250199 (1,13,5) -1.27555
(1,12,6): (1,11,6) 2.94321 (1,12,5) -0.250199 (1,12,7) -0.249565 (1,13,6) -1.42743
(1,12,7): (1,11,7) 2.84566 (1,12,6) 0.249565 (1,12,8) -0.874019 (1,13,7) -1.27587
(1,12,8): (1,11,8) 1.14466 (1,12,7) 0.874019 (1,12,9) -0.620560 (1,13,8) -0.678047
(1,12,9): (1,11,9) 0.380207 (1,12,8) 0.620560 (1,12,10) -0.266011 (1,13,9) -0.280609
(1,12,10): (1,11,10) 0.136302 (1,12,9) 0.266011 (1,13,10) -0.118602
(1,13,1): (1,12,1) 3.342888E-02 (1,13,2) 4.389551E-02 (1,14,1) -1.775368E-02
(1,13,2): (1,12,2) 9.349175E-02 (1,13,1) -4.389551E-02 (1,13,3) 0.118996 (1,14,2) -4.649647E-02
(1,13,3): (1,12,3) 0.274068 (1,13,2) -0.118996 (1,13,4) 0.227692 (1,14,3) -0.126231
(1,13,4): (1,12,4) 0.676504 (1,13,3) -0.227692 (1,13,5) 0.279601 (1,14,4) -0.283373
(1,13,5): (1,12,5) 1.27555 (1,13,4) -0.279601 (1,13,6) 9.999738E-02 (1,14,5) -0.482233
(1,13,6): (1,12,6) 1.42743 (1,13,5) -9.999738E-02 (1,13,7) -9.968780E-02 (1,14,6) -0.550779
(1,13,7): (1,12,7) 1.27587 (1,13,6) 9.968780E-02 (1,13,8) -0.278480 (1,14,7) -0.482420
(1,13,8): (1,12,8) 0.678047 (1,13,7) 0.278480 (1,13,9) -0.223345 (1,14,8) -0.284246
(1,13,9): (1,12,9) 0.280609 (1,13,8) 0.223345 (1,13,10) -0.104028 (1,14,9) -0.129812
(1,13,10): (1,12,10) 0.118602 (1,13,9) 0.104028 (1,14,10) -5.962302E-02
(1,14,1): (1,13,1) 1.775368E-02 (1,14,2) 1.515347E-02 (1,15,1) -6.478992E-03
(1,14,2): (1,13,2) 4.649647E-02 (1,14,1) -1.515347E-02 (1,14,3) 3.926765E-02 (1,15,2) -1.623998E-02
(1,14,3): (1,13,3) 0.126231 (1,14,2) -3.926765E-02 (1,14,4) 7.063575E-02 (1,15,3) -4.205463E-02
(1,14,4): (1,13,4) 0.283373 (1,14,3) -7.063575E-02 (1,14,5) 8.113723E-02 (1,15,4) -8.962987E-02
(1,14,5): (1,13,5) 0.482233 (1,14,4) -8.113723E-02 (1,14,6) 3.175292E-02 (1,15,5) -0.145457
(1,14,6): (1,13,6) 0.550779 (1,14,5) -3.175292E-02 (1,14,7) -3.162975E-02 (1,15,6) -0.166888
(1,14,7): (1,13,7) 0.482420 (1,14,6) 3.162975E-02 (1,14,8) -8.070342E-02 (1,15,7) -0.145530
(1,14,8): (1,13,8) 0.284246 (1,14,7) 8.070342E-02 (1,14,9) -6.900436E-02 (1,15,8) -8.996308E-02
(1,14,9): (1,13,9) 0.129812 (1,14,8) 6.900436E-02 (1,14,10) -3.385687E-02 (1,15,9) -4.338901E-02
(1,14,10): (1,13,10) 5.962302E-02 (1,14,9) 3.385687E-02 (1,15,10) -2.097284E-02
(1,15,1): (1,14,1) 6.478992E-03 (1,15,2) 5.392584E-03
(1,15,2): (1,14,2) 1.623998E-02 (1,15,1) -5.392584E-03 (1,15,3) 1.345372E-02
(1,15,3): (1,14,3) 4.205463E-02 (1,15,2) -1.345372E-02 (1,15,4) 2.306952E-02
(1,15,4): (1,14,4) 8.962987E-02 (1,15,3) -2.306952E-02 (1,15,5) 2.534572E-02
(1,15,5): (1,14,5) 0.145457 (1,15,4) -2.534572E-02 (1,15,6) 1.035092E-02
(1,15,6): (1,14,6) 0.166888 (1,15,5) -1.035092E-02 (1,15,7) -1.030024E-02
(1,15,7): (1,14,7) 0.145530 (1,15,6) 1.030024E-02 (1,15,8) -2.517267E-02
(1,15,8): (1,14,8) 8.996308E-02 (1,15,7) 2.517267E-02 (1,15,9) -2.244002E-02
(1,15,9): (1,14,9) 4.338901E-02 (1,15,8) 2.244002E-02 (1,15,10) -1.144282E-02
(1,15,10): (1,14,10) 2.097284E-02 (1,15,9) 1.144282E-02

 WEL PACKAGE (WEL-1) FLOW RATES   PERIOD      2   STEP       36
 ----------------------------------------------------------------------------------------
   NUMBER   CELLID                    RATE       NAME                                    
 ----------------------------------------------------------------------------------------
     1      (1,8,6)              -217.62950      WEL                                     
 ----------------------------------------------------------------------------------------




 DRN PACKAGE (DRN-0) FLOW RATES   PERIOD      2   STEP       36
 ----------------------------------------------------------------------------------------
   NUMBER   CELLID                    RATE       NAME                                    
 ----------------------------------------------------------------------------------------
     1      (1,1,1)               0.0000000      SURF                                    
     2      (1,1,2)               0.0000000      SURF                                    
     3      (1,1,3)               0.0000000      SURF                                    
     4      (1,1,4)               0.0000000      SURF                                    
     5      (1,1,5)               0.0000000      SURF                                    
     6      (1,1,6)               0.0000000      SURF                                    
     7      (1,1,7)               0.0000000      SURF                                    
     8      (1,1,8)               0.0000000      SURF                                    
     9      (1,1,9)               0.0000000      SURF                                    
     10     (1,1,10)              0.0000000      SURF                                    
     11     (1,2,1)               0.0000000      SURF                                    
     12     (1,2,2)               0.0000000      SURF                                    
     13     (1,2,3)               0.0000000      SURF                                    
     14     (1,2,4)               0.0000000      SURF                                    
     15     (1,2,5)               0.0000000      SURF                                    
     16     (1,2,6)               0.0000000      SURF                                    
     17     (1,2,7)               0.0000000      SURF                                    
     18     (1,2,8)               0.0000000      SURF                                    
     19     (1,2,9)               0.0000000      SURF                                    
     20     (1,2,10)              0.0000000      SURF                                    
     21     (1,3,1)               0.0000000      SURF                                    
     22     (1,3,2)               0.0000000      SURF                                    
     23     (1,3,3)               0.0000000      SURF                                    
     24     (1,3,4)               0.0000000      SURF                                    
     25     (1,3,5)               0.0000000      SURF                                    
     26     (1,3,6)               0.0000000      SURF                                    
     27     (1,3,7)               0.0000000      SURF                                    
     28     (1,3,8)               0.0000000      SURF                                    
     29     (1,3,9)               0.0000000      SURF                                    
     30     (1,3,10)              0.0000000      SURF                                    
     31     (1,4,1)               0.0000000      SURF                                    
     32     (1,4,2)               0.0000000      SURF                                    
     33     (1,4,3)               0.0000000      SURF                                    
     34     (1,4,4)               0.0000000      SURF                                    
     35     (1,4,5)               0.0000000      SURF                                    
     36     (1,4,6)               0.0000000      SURF                                    
     37     (1,4,7)               0.0000000      SURF                                    
     38     (1,4,8)               0.0000000      SURF                                    
     39     (1,4,9)               0.0000000      SURF                                    
     40     (1,4,10)              0.0000000      SURF                                    
     41     (1,5,1)               0.0000000      SURF                                    
     42     (1,5,2)               0.0000000      SURF                                    
     43     (1,5,3)               0.0000000      SURF                                    
     44     (1,5,4)               0.0000000      SURF                                    
     45     (1,5,5)               0.0000000      SURF                                    
     46     (1,5,6)               0.0000000      SURF                                    
     47     (1,5,7)               0.0000000      SURF                                    
     48     (1,5,8)               0.0000000      SURF                                    
     49     (1,5,9)               0.0000000      SURF                                    
     50     (1,5,10)              0.0000000      SURF                                    
     51     (1,6,1)               0.0000000      SURF                                    
     52     (1,6,2)               0.0000000      SURF                                    
     53     (1,6,3)               0.0000000      SURF                                    
     54     (1,6,4)               0.0000000      SURF                                    
     55     (1,6,5)               0.0000000      SURF                                    
     56     (1,6,6)               0.0000000      SURF                                    
     57     (1,6,7)              -8.74570105E-09 SURF                                    
     58     (1,6,8)               0.0000000      SURF                                    
     59     (1,6,9)               0.0000000      SURF                                    
     60     (1,6,10)              0.0000000      SURF                                    
     61     (1,7,1)               0.0000000      SURF                                    
     62     (1,7,2)               0.0000000      SURF                                    
     63     (1,7,3)               0.0000000      SURF                                    
     64     (1,7,4)               0.0000000      SURF                                    
     65     (1,7,5)               0.0000000      SURF                                    
     66     (1,7,6)               0.0000000      SURF                                    
     67     (1,7,7)               0.0000000      SURF                                    
     68     (1,7,8)               0.0000000      SURF                                    
     69     (1,7,9)               0.0000000      SURF                                    
     70     (1,7,10)              0.0000000      SURF                                    
     71     (1,8,1)               0.0000000      SURF                                    
     72     (1,8,2)               0.0000000      SURF                                    
     73     (1,8,3)               0.0000000      SURF                                    
     74     (1,8,4)               0.0000000      SURF                                    
     75     (1,8,5)               0.0000000      SURF                                    
     76     (1,8,6)               0.0000000      SURF                                    
     77     (1,8,7)               0.0000000      SURF                                    
     78     (1,8,8)               0.0000000      SURF                                    
     79     (1,8,9)               0.0000000      SURF                                    
     80     (1,8,10)              0.0000000      SURF                                    
     81     (1,9,1)               0.0000000      SURF                                    
     82     (1,9,2)               0.0000000      SURF                                    
     83     (1,9,3)               0.0000000      SURF                                    
     84     (1,9,4)               0.0000000      SURF                                    
     85     (1,9,5)               0.0000000      SURF                                    
     86     (1,9,6)               0.0000000      SURF                                    
     87     (1,9,7)               0.0000000      SURF                                    
     88     (1,9,8)               0.0000000      SURF                                    
     89     (1,9,9)               0.0000000      SURF                                    
     90     (1,9,10)              0.0000000      SURF                                    
     91     (1,10,1)              0.0000000      SURF                                    
     92     (1,10,2)              0.0000000      SURF                                    
     93     (1,10,3)              0.0000000      SURF                                    
     94     (1,10,4)              0.0000000      SURF                                    
     95     (1,10,5)              0.0000000      SURF                                    
     96     (1,10,6)              0.0000000      SURF                                    
     97     (1,10,7)             -3.78116965E-07 SURF                                    
     98     (1,10,8)              0.0000000      SURF                                    
     99     (1,10,9)              0.0000000      SURF                                    
    100     (1,10,10)             0.0000000      SURF                                    
    101     (1,11,1)              0.0000000      SURF                                    
    102     (1,11,2)              0.0000000      SURF                                    
    103     (1,11,3)              0.0000000      SURF                                    
    104     (1,11,4)              0.0000000      SURF                                    
    105     (1,11,5)              0.0000000      SURF                                    
    106     (1,11,6)              0.0000000      SURF                                    
    107     (1,11,7)              0.0000000      SURF                                    
    108     (1,11,8)              0.0000000      SURF                                    
    109     (1,11,9)              0.0000000      SURF                                    
    110     (1,11,10)             0.0000000      SURF                                    
    111     (1,12,1)              0.0000000      SURF                                    
    112     (1,12,2)              0.0000000      SURF                                    
    113     (1,12,3)              0.0000000      SURF                                    
    114     (1,12,4)              0.0000000      SURF                                    
    115     (1,12,5)              0.0000000      SURF                                    
    116     (1,12,6)              0.0000000      SURF                                    
    117     (1,12,7)              0.0000000      SURF                                    
    118     (1,12,8)              0.0000000      SURF                                    
    119     (1,12,9)              0.0000000      SURF                                    
    120     (1,12,10)             0.0000000      SURF                                    
    121     (1,13,1)              0.0000000      SURF                                    
    122     (1,13,2)              0.0000000      SURF                                    
    123     (1,13,3)              0.0000000      SURF                                    
    124     (1,13,4)              0.0000000      SURF                                    
    125     (1,13,5)              0.0000000      SURF                                    
    126     (1,13,6)              0.0000000      SURF                                    
    127     (1,13,7)              0.0000000      SURF                                    
    128     (1,13,8)              0.0000000      SURF                                    
    129     (1,13,9)              0.0000000      SURF                                    
    130     (1,13,10)             0.0000000      SURF                                    
    131     (1,14,1)              0.0000000      SURF                                    
    132     (1,14,2)              0.0000000      SURF                                    
    133     (1,14,3)              0.0000000      SURF                                    
    134     (1,14,4)              0.0000000      SURF                                    
    135     (1,14,5)              0.0000000      SURF                                    
    136     (1,14,6)              0.0000000      SURF                                    
    137     (1,14,7)              0.0000000      SURF                                    
    138     (1,14,8)              0.0000000      SURF                                    
    139     (1,14,9)              0.0000000      SURF                                    
    140     (1,14,10)             0.0000000      SURF                                    
    141     (1,15,1)              0.0000000      SURF                                    
    142     (1,15,2)              0.0000000      SURF                                    
    143     (1,15,3)              0.0000000      SURF                                    
    144     (1,15,4)              0.0000000      SURF                                    
    145     (1,15,5)              0.0000000      SURF                                    
    146     (1,15,6)              0.0000000      SURF                                    
    147     (1,15,7)              0.0000000      SURF                                    
    148     (1,15,8)              0.0000000      SURF                                    
    149     (1,15,9)              0.0000000      SURF                                    
    150     (1,15,10)             0.0000000      SURF                                    
 ----------------------------------------------------------------------------------------




 API PACKAGE (MAR) FLOW RATES   PERIOD      2   STEP       36
 -----------------------------------------------
   NUMBER   CELLID                    RATE      
 -----------------------------------------------
     1      (1,6,5)               33.953046     
     2      (1,6,6)               33.953046     
     3      (1,6,7)               33.953046     
     4      (1,10,5)              34.236649     
     5      (1,10,6)              34.236649     
     6      (1,10,7)              34.236649     
 -----------------------------------------------



1
  HEAD IN LAYER   1 AT END OF TIME STEP  36 IN STRESS PERIOD    2
  ---------------------------------------------------------------------------

            1           2           3           4           5           6           7           8           9          10
 ........................................................................................................................
   1   6.6042E-04  1.4422E-03  3.3017E-03  6.3350E-03  9.5501E-03  1.0871E-02  9.5600E-03  6.3762E-03  3.4483E-03  1.9020E-03
   2   1.6086E-03  3.6457E-03  8.6630E-03  1.7224E-02  2.6689E-02  3.0429E-02  2.6712E-02  1.7320E-02  9.0137E-03  4.7797E-03
   3   4.0766E-03  9.6097E-03  2.3819E-02  4.9535E-02  7.9848E-02  9.0823E-02  7.9902E-02  4.9767E-02  2.4691E-02  1.2517E-02
   4   8.4837E-03  2.0894E-02  5.4613E-02  0.1214      0.2102      0.2358      0.2103      0.1218      5.6386E-02  2.7007E-02
   5   1.2965E-02  3.3462E-02  9.4031E-02  0.2347      0.4800      0.5129      0.4801      0.2354      9.6680E-02  4.2878E-02
   6   1.1269E-02  2.9318E-02  8.9875E-02  0.2890      0.9999      0.9043       1.000      0.2896      9.2191E-02  3.7442E-02
   7  -1.3499E-03 -1.2526E-02 -6.4478E-02 -0.2475     -0.7606      -2.013     -0.7606     -0.2474     -6.4394E-02 -1.4117E-02
   8  -1.0564E-02 -4.3220E-02 -0.1821     -0.6913      -2.448      -9.210      -2.448     -0.6916     -0.1837     -5.1894E-02
   9  -3.5693E-03 -1.6422E-02 -7.0964E-02 -0.2551     -0.7653      -2.016     -0.7653     -0.2551     -7.1420E-02 -1.9471E-02
  10   7.8495E-03  2.3363E-02  8.0266E-02  0.2793      0.9999      0.9066       1.000      0.2796      8.1760E-02  2.9253E-02
  11   9.6527E-03  2.7464E-02  8.3431E-02  0.2205      0.4665      0.4995      0.4666      0.2210      8.5289E-02  3.4698E-02
  12   6.1639E-03  1.6543E-02  4.6367E-02  0.1087      0.1946      0.2191      0.1947      0.1090      4.7590E-02  2.1114E-02
  13   2.8230E-03  7.2094E-03  1.9086E-02  4.1761E-02  6.9528E-02  7.9449E-02  6.9559E-02  4.1903E-02  1.9662E-02  9.2792E-03
  14   1.0482E-03  2.5631E-03  6.4873E-03  1.3541E-02  2.1638E-02  2.4805E-02  2.1650E-02  1.3597E-02  6.7059E-03  3.3225E-03
  15   4.0033E-04  9.3954E-04  2.2846E-03  4.5905E-03  7.1233E-03  8.1575E-03  7.1283E-03  4.6129E-03  2.3699E-03  1.2259E-03

 HEAD WILL BE SAVED ON UNIT 1100 AT END OF TIME STEP   36, STRESS PERIOD    2


  VOLUME BUDGET FOR ENTIRE MODEL AT END OF TIME STEP   36, STRESS PERIOD   2
  ---------------------------------------------------------------------------------------------------

     CUMULATIVE VOLUME      L**3       RATES FOR THIS TIME STEP      L**3/T          PACKAGE NAME    
     ------------------                 ------------------------                     ----------------

           IN:                                      IN:
           ---                                      ---
              STO-SS =          19.3934                STO-SS =       2.1284E-02     STORAGE                          
              STO-SY =       49600.0428                STO-SY =          47.2897     STORAGE                          
                 WEL =           0.0000                   WEL =           0.0000     WEL-1                            
                 DRN =           0.0000                   DRN =           0.0000     DRN-0                            
                 API =       72165.0549                   API =         204.5691     MAR                              
                 CHD =       2.0279E-08                   CHD =           0.0000     CHD_0                            

            TOTAL IN =      121784.4912              TOTAL IN =         251.8801

          OUT:                                     OUT:
          ----                                     ----
              STO-SS =          15.7751                STO-SS =       1.7361E-02     STORAGE                          
              STO-SY =       30702.8338                STO-SY =          34.2332     STORAGE                          
                 WEL =       91065.8822                   WEL =         217.6295     WEL-1                            
                 DRN =       1.1449E-04                   DRN =       3.8686E-07     DRN-0                            
                 API =           0.0000                   API =           0.0000     MAR                              
                 CHD =       2.0705E-08                   CHD =           0.0000     CHD_0                            

           TOTAL OUT =      121784.4912             TOTAL OUT =         251.8801

            IN - OUT =      -8.7828E-07              IN - OUT =      -3.0625E-09

 PERCENT DISCREPANCY =          -0.00     PERCENT DISCREPANCY =          -0.00




         TIME SUMMARY AT END OF TIME STEP   36 IN STRESS PERIOD    2
                    SECONDS     MINUTES      HOURS       DAYS        YEARS
                    -----------------------------------------------------------
   TIME STEP LENGTH 8.64000E+05  14400.      240.00      10.000     2.73785E-02
 STRESS PERIOD TIME 3.11040E+07 5.18400E+05  8640.0      360.00     0.98563    
         TOTAL TIME 3.11904E+07 5.19840E+05  8664.0      361.00     0.98836    


end timestep


start timestep kper="2" kstp="37" mode="normal"

 UBDSV1 SAVING           STO-SS ON UNIT   1099 AT TIME STEP     37, STRESS PERIOD      2
 UBDSV1 SAVING           STO-SY ON UNIT   1099 AT TIME STEP     37, STRESS PERIOD      2
 UBDSV1 SAVING     FLOW-JA-FACE ON UNIT   1099 AT TIME STEP     37, STRESS PERIOD      2
 UBDSV06 SAVING       DATA-SPDIS IN MODEL GWF              PACKAGE NPF             CONNECTED TO MODEL GWF              PACKAGE NPF              ON UNIT   1099 AT TIME STEP     37, STRESS PERIOD      2
 UBDSV06 SAVING              WEL IN MODEL GWF              PACKAGE GWF             CONNECTED TO MODEL GWF              PACKAGE WEL-1            ON UNIT   1099 AT TIME STEP     37, STRESS PERIOD      2
 UBDSV06 SAVING              DRN IN MODEL GWF              PACKAGE GWF             CONNECTED TO MODEL GWF              PACKAGE DRN-0            ON UNIT   1099 AT TIME STEP     37, STRESS PERIOD      2
 UBDSV06 SAVING              API IN MODEL GWF              PACKAGE GWF             CONNECTED TO MODEL GWF              PACKAGE MAR              ON UNIT   1099 AT TIME STEP     37, STRESS PERIOD      2
 UBDSV06 SAVING              CHD IN MODEL GWF              PACKAGE GWF             CONNECTED TO MODEL GWF              PACKAGE CHD_0            ON UNIT   1099 AT TIME STEP     37, STRESS PERIOD      2

    CALCULATED INTERCELL FLOW FOR PERIOD 2 STEP 37
(1,1,1): (1,1,2) 8.638961E-03 (1,2,1) 1.044358E-02
(1,1,2): (1,1,1) -8.638961E-03 (1,1,3) 2.030265E-02 (1,2,2) 2.382509E-02
(1,1,3): (1,1,2) -2.030265E-02 (1,1,4) 3.269821E-02 (1,2,3) 5.711242E-02
(1,1,4): (1,1,3) -3.269821E-02 (1,1,5) 3.432760E-02 (1,2,4) 0.114762
(1,1,5): (1,1,4) -3.432760E-02 (1,1,6) 1.408529E-02 (1,2,5) 0.179477
(1,1,6): (1,1,5) -1.408529E-02 (1,1,7) -1.396575E-02 (1,2,6) 0.204532
(1,1,7): (1,1,6) 1.396575E-02 (1,1,8) -3.396105E-02 (1,2,7) 0.179625
(1,1,8): (1,1,7) 3.396105E-02 (1,1,9) -3.148716E-02 (1,2,8) 0.115386
(1,1,9): (1,1,8) 3.148716E-02 (1,1,10) -1.677567E-02 (1,2,9) 5.938893E-02
(1,1,10): (1,1,9) 1.677567E-02 (1,2,10) 3.120434E-02
(1,2,1): (1,1,1) -1.044358E-02 (1,2,2) 2.202023E-02 (1,3,1) 2.670515E-02
(1,2,2): (1,1,2) -2.382509E-02 (1,2,1) -2.202023E-02 (1,2,3) 5.358881E-02 (1,3,2) 6.336257E-02
(1,2,3): (1,1,3) -5.711242E-02 (1,2,2) -5.358881E-02 (1,2,4) 9.033413E-02 (1,3,3) 0.158835
(1,2,4): (1,1,4) -0.114762 (1,2,3) -9.033413E-02 (1,2,5) 9.899027E-02 (1,3,4) 0.335721
(1,2,5): (1,1,5) -0.179477 (1,2,4) -9.899027E-02 (1,2,6) 3.909967E-02 (1,3,5) 0.550217
(1,2,6): (1,1,6) -0.204532 (1,2,5) -3.909967E-02 (1,2,7) -3.883203E-02 (1,3,6) 0.624916
(1,2,7): (1,1,7) -0.179625 (1,2,6) 3.883203E-02 (1,2,8) -9.814793E-02 (1,3,7) 0.550579
(1,2,8): (1,1,8) -0.115386 (1,2,7) 9.814793E-02 (1,2,9) -8.746886E-02 (1,3,8) 0.337259
(1,2,9): (1,1,9) -5.938893E-02 (1,2,8) 8.746886E-02 (1,2,10) -4.495620E-02 (1,3,9) 0.164560
(1,2,10): (1,1,10) -3.120434E-02 (1,2,9) 4.495620E-02 (1,3,10) 8.245415E-02
(1,3,1): (1,2,1) -2.670515E-02 (1,3,2) 5.867594E-02 (1,4,1) 4.660340E-02
(1,3,2): (1,2,2) -6.336257E-02 (1,3,1) -5.867594E-02 (1,3,3) 0.149052 (1,4,2) 0.117291
(1,3,3): (1,2,3) -0.158835 (1,3,2) -0.149052 (1,3,4) 0.267101 (1,4,3) 0.316793
(1,3,4): (1,2,4) -0.335721 (1,3,3) -0.267101 (1,3,5) 0.312989 (1,4,4) 0.737294
(1,3,5): (1,2,5) -0.550217 (1,3,4) -0.312989 (1,3,6) 0.113426 (1,4,5) 1.34304
(1,3,6): (1,2,6) -0.624916 (1,3,5) -0.113426 (1,3,7) -0.112798 (1,4,6) 1.49677
(1,3,7): (1,2,7) -0.550579 (1,3,6) 0.112798 (1,3,8) -0.310967 (1,4,7) 1.34363
(1,3,8): (1,2,8) -0.337259 (1,3,7) 0.310967 (1,3,9) -0.260036 (1,4,8) 0.739852
(1,3,9): (1,2,9) -0.164560 (1,3,8) 0.260036 (1,3,10) -0.127032 (1,4,9) 0.326545
(1,3,10): (1,2,10) -8.245415E-02 (1,3,9) 0.127032 (1,4,10) 0.151104
(1,4,1): (1,3,1) -4.660340E-02 (1,4,2) 0.129372 (1,5,1) 4.563639E-02
(1,4,2): (1,3,2) -0.117291 (1,4,1) -0.129372 (1,4,3) 0.348617 (1,5,2) 0.126254
(1,4,3): (1,3,3) -0.316793 (1,4,2) -0.348617 (1,4,4) 0.687397 (1,5,3) 0.395433
(1,4,4): (1,3,4) -0.737294 (1,4,3) -0.687397 (1,4,5) 0.916280 (1,5,4) 1.15265
(1,4,5): (1,3,5) -1.34304 (1,4,4) -0.916280 (1,4,6) 0.265399 (1,5,5) 2.81821
(1,4,6): (1,3,6) -1.49677 (1,4,5) -0.265399 (1,4,7) -0.264176 (1,5,6) 2.90130
(1,4,7): (1,3,7) -1.34363 (1,4,6) 0.264176 (1,4,8) -0.912281 (1,5,7) 2.81878
(1,4,8): (1,3,8) -0.739852 (1,4,7) 0.912281 (1,4,9) -0.673075 (1,5,8) 1.15501
(1,4,9): (1,3,9) -0.326545 (1,4,8) 0.673075 (1,4,10) -0.302431 (1,5,9) 0.404631
(1,4,10): (1,3,10) -0.151104 (1,4,9) 0.302431 (1,5,10) 0.159885
(1,5,1): (1,4,1) -4.563639E-02 (1,5,2) 0.210057 (1,6,1) -2.083942E-02
(1,5,2): (1,4,2) -0.126254 (1,5,1) -0.210057 (1,5,3) 0.618383 (1,6,2) -5.121951E-02
(1,5,3): (1,4,3) -0.395433 (1,5,2) -0.618383 (1,5,4) 1.44672 (1,6,3) -6.552839E-02
(1,5,4): (1,4,4) -1.15265 (1,5,3) -1.44672 (1,5,5) 2.57827 (1,6,4) 0.516377
(1,5,5): (1,4,5) -2.81821 (1,5,4) -2.57827 (1,5,6) 0.346778 (1,6,5) 5.68385
(1,5,6): (1,4,6) -2.90130 (1,5,5) -0.346778 (1,5,7) -0.344997 (1,6,6) 4.23320
(1,5,7): (1,4,7) -2.81878 (1,5,6) 0.344997 (1,5,8) -2.57238 (1,6,7) 5.68370
(1,5,8): (1,4,8) -1.15501 (1,5,7) 2.57238 (1,5,9) -1.42537 (1,6,8) 0.515419
(1,5,9): (1,4,9) -0.404631 (1,5,8) 1.42537 (1,5,10) -0.547518 (1,6,9) -6.968941E-02
(1,5,10): (1,4,10) -0.159885 (1,5,9) 0.547518 (1,6,10) -6.708310E-02
(1,6,1): (1,5,1) 2.083942E-02 (1,6,2) 0.179629 (1,7,1) -0.133931
(1,6,2): (1,5,2) 5.121951E-02 (1,6,1) -0.179629 (1,6,3) 0.603998 (1,7,2) -0.436906
(1,6,3): (1,5,3) 6.552839E-02 (1,6,2) -0.603998 (1,6,4) 2.03696 (1,7,3) -1.59818
(1,6,4): (1,5,4) -0.516377 (1,6,3) -2.03696 (1,6,5) 7.83706 (1,7,4) -5.60173
(1,6,5): (1,5,5) -5.68385 (1,6,4) -7.83706 (1,6,6) -1.05084 (1,7,5) -19.5082
(1,6,6): (1,5,6) -4.23320 (1,6,5) 1.05084 (1,6,7) 1.05249 (1,7,6) -31.9360
(1,6,7): (1,5,7) -5.68370 (1,6,6) -1.05249 (1,6,8) -7.83178 (1,7,7) -19.5096
(1,6,8): (1,5,8) -0.515419 (1,6,7) 7.83178 (1,6,9) -2.01876 (1,7,8) -5.60734
(1,6,9): (1,5,9) 6.968941E-02 (1,6,8) 2.01876 (1,6,10) -0.544901 (1,7,9) -1.62274
(1,6,10): (1,5,10) 6.708310E-02 (1,6,9) 0.544901 (1,7,10) -0.540123
(1,7,1): (1,6,1) 0.133931 (1,7,2) -0.122723 (1,8,1) -9.644673E-02
(1,7,2): (1,6,2) 0.436906 (1,7,1) 0.122723 (1,7,3) -0.548981 (1,8,2) -0.315712
(1,7,3): (1,6,3) 1.59818 (1,7,2) 0.548981 (1,7,4) -1.86818 (1,8,3) -1.18899
(1,7,4): (1,6,4) 5.60173 (1,7,3) 1.86818 (1,7,5) -5.03225 (1,8,4) -4.35947
(1,7,5): (1,6,5) 19.5082 (1,7,4) 5.03225 (1,7,6) -11.5401 (1,8,5) -15.6045
(1,7,6): (1,6,6) 31.9360 (1,7,5) 11.5401 (1,7,7) 11.5406 (1,8,6) -57.3335
(1,7,7): (1,6,7) 19.5096 (1,7,6) -11.5406 (1,7,8) 5.03304 (1,8,7) -15.6054
(1,7,8): (1,6,8) 5.60734 (1,7,7) -5.03304 (1,7,9) 1.86716 (1,8,8) -4.36352
(1,7,9): (1,6,9) 1.62274 (1,7,8) -1.86716 (1,7,10) 0.529096 (1,8,9) -1.20664
(1,7,10): (1,6,10) 0.540123 (1,7,9) -0.529096 (1,8,10) -0.389330
(1,8,1): (1,7,1) 9.644673E-02 (1,8,2) -0.342046 (1,9,1) 7.394979E-02
(1,8,2): (1,7,2) 0.315712 (1,8,1) 0.342046 (1,8,3) -1.42432 (1,9,2) 0.277181
(1,8,3): (1,7,3) 1.18899 (1,8,2) 1.42432 (1,8,4) -5.06107 (1,9,3) 1.12618
(1,8,4): (1,7,4) 4.35947 (1,8,3) 5.06107 (1,8,5) -16.3631 (1,9,4) 4.28686
(1,8,5): (1,7,5) 15.6045 (1,8,4) 16.3631 (1,8,6) -50.8474 (1,9,5) 15.5580
(1,8,6): (1,7,6) 57.3335 (1,8,5) 50.8474 (1,8,7) 50.8469 (1,9,6) 57.2870
(1,8,7): (1,7,7) 15.6054 (1,8,6) -50.8469 (1,8,8) 16.3604 (1,9,7) 15.5584
(1,8,8): (1,7,8) 4.36352 (1,8,7) -16.3604 (1,8,9) 5.04575 (1,9,8) 4.28911
(1,8,9): (1,7,9) 1.20664 (1,8,8) -5.04575 (1,8,10) 1.34756 (1,9,9) 1.13826
(1,8,10): (1,7,10) 0.389330 (1,8,9) -1.34756 (1,9,10) 0.336174
(1,9,1): (1,8,1) -7.394979E-02 (1,9,2) -0.138683 (1,10,1) 0.121593
(1,9,2): (1,8,2) -0.277181 (1,9,1) 0.138683 (1,9,3) -0.572785 (1,10,2) 0.415987
(1,9,3): (1,8,3) -1.12618 (1,9,2) 0.572785 (1,9,4) -1.87570 (1,10,3) 1.56570
(1,9,4): (1,8,4) -4.28686 (1,9,3) 1.87570 (1,9,5) -5.00057 (1,10,4) 5.57496
(1,9,5): (1,8,5) -15.5580 (1,9,4) 5.00057 (1,9,6) -11.5238 (1,10,5) 19.5559
(1,9,6): (1,8,6) -57.2870 (1,9,5) 11.5238 (1,9,7) 11.5238 (1,10,6) 32.0012
(1,9,7): (1,8,7) -15.5584 (1,9,6) -11.5238 (1,9,8) 5.00001 (1,10,7) 19.5569
(1,9,8): (1,8,8) -4.28911 (1,9,7) -5.00001 (1,9,9) 1.87085 (1,10,8) 5.57951
(1,9,9): (1,8,9) -1.13826 (1,9,8) -1.87085 (1,9,10) 0.543787 (1,10,9) 1.58713
(1,9,10): (1,8,10) -0.336174 (1,9,9) -0.543787 (1,10,10) 0.511137
(1,10,1): (1,9,1) -0.121593 (1,10,2) 0.155140 (1,11,1) 2.161323E-02
(1,10,2): (1,9,2) -0.415987 (1,10,1) -0.155140 (1,10,3) 0.568960 (1,11,2) 5.021105E-02
(1,10,3): (1,9,3) -1.56570 (1,10,2) -0.568960 (1,10,4) 2.03600 (1,11,3) 5.478046E-02
(1,10,4): (1,9,4) -5.57496 (1,10,3) -2.03600 (1,10,5) 7.93956 (1,11,4) -0.561446
(1,10,5): (1,9,5) -19.5559 (1,10,4) -7.93956 (1,10,6) -1.02630 (1,11,5) -5.82625
(1,10,6): (1,9,6) -32.0012 (1,10,5) 1.02630 (1,10,7) 1.02718 (1,11,6) -4.39875
(1,10,7): (1,9,7) -19.5569 (1,10,6) -1.02718 (1,10,8) -7.93639 (1,11,7) -5.82606
(1,10,8): (1,9,8) -5.57951 (1,10,7) 7.93639 (1,10,9) -2.02374 (1,11,8) -0.560402
(1,10,9): (1,9,9) -1.58713 (1,10,8) 2.02374 (1,10,10) -0.523950 (1,11,9) 5.918813E-02
(1,10,10): (1,9,10) -0.511137 (1,10,9) 0.523950 (1,11,10) 6.635972E-02
(1,11,1): (1,10,1) -2.161323E-02 (1,11,2) 0.183776 (1,12,1) -3.578142E-02
(1,11,2): (1,10,2) -5.021105E-02 (1,11,1) -0.183776 (1,11,3) 0.573552 (1,12,2) -0.110307
(1,11,3): (1,10,3) -5.478046E-02 (1,11,2) -0.573552 (1,11,4) 1.41119 (1,12,3) -0.373079
(1,11,4): (1,10,4) 0.561446 (1,11,3) -1.41119 (1,11,5) 2.58349 (1,12,4) -1.13852
(1,11,5): (1,10,5) 5.82625 (1,11,4) -2.58349 (1,11,6) 0.347159 (1,12,5) -2.83797
(1,11,6): (1,10,6) 4.39875 (1,11,5) -0.347159 (1,11,7) -0.346098 (1,12,6) -2.93327
(1,11,7): (1,10,7) 5.82606 (1,11,6) 0.346098 (1,11,8) -2.57958 (1,12,7) -2.83831
(1,11,8): (1,10,8) 0.560402 (1,11,7) 2.57958 (1,11,9) -1.39559 (1,12,8) -1.14007
(1,11,9): (1,10,9) -5.918813E-02 (1,11,8) 1.39559 (1,11,10) -0.516744 (1,12,9) -0.379798
(1,11,10): (1,10,10) -6.635972E-02 (1,11,9) 0.516744 (1,12,10) -0.137601
(1,12,1): (1,11,1) 3.578142E-02 (1,12,2) 0.109196 (1,13,1) -3.572795E-02
(1,12,2): (1,11,2) 0.110307 (1,12,1) -0.109196 (1,12,3) 0.310263 (1,13,2) -9.785449E-02
(1,12,3): (1,11,3) 0.373079 (1,12,2) -0.310263 (1,12,4) 0.643763 (1,13,3) -0.282353
(1,12,4): (1,11,4) 1.13852 (1,12,3) -0.643763 (1,12,5) 0.887918 (1,13,4) -0.689289
(1,12,5): (1,11,5) 2.83797 (1,12,4) -0.887918 (1,12,6) 0.253887 (1,13,5) -1.29160
(1,12,6): (1,11,6) 2.93327 (1,12,5) -0.253887 (1,12,7) -0.253157 (1,13,6) -1.44407
(1,12,7): (1,11,7) 2.83831 (1,12,6) 0.253157 (1,12,8) -0.885284 (1,13,7) -1.29197
(1,12,8): (1,11,8) 1.14007 (1,12,7) 0.885284 (1,12,9) -0.633474 (1,13,8) -0.690997
(1,12,9): (1,11,9) 0.379798 (1,12,8) 0.633474 (1,12,10) -0.274222 (1,13,9) -0.289440
(1,12,10): (1,11,10) 0.137601 (1,12,9) 0.274222 (1,13,10) -0.124515
(1,13,1): (1,12,1) 3.572795E-02 (1,13,2) 4.706221E-02 (1,14,1) -1.947795E-02
(1,13,2): (1,12,2) 9.785449E-02 (1,13,1) -4.706221E-02 (1,13,3) 0.125713 (1,14,2) -4.993268E-02
(1,13,3): (1,12,3) 0.282353 (1,13,2) -0.125713 (1,13,4) 0.237007 (1,14,3) -0.133245
(1,13,4): (1,12,4) 0.689289 (1,13,3) -0.237007 (1,13,5) 0.287919 (1,14,4) -0.295224
(1,13,5): (1,12,5) 1.29160 (1,13,4) -0.287919 (1,13,6) 0.103122 (1,14,5) -0.498258
(1,13,6): (1,12,6) 1.44407 (1,13,5) -0.103122 (1,13,7) -0.102758 (1,14,6) -0.568288
(1,13,7): (1,12,7) 1.29197 (1,13,6) 0.102758 (1,13,8) -0.286636 (1,14,7) -0.498475
(1,13,8): (1,12,8) 0.690997 (1,13,7) 0.286636 (1,13,9) -0.232141 (1,14,8) -0.296215
(1,13,9): (1,12,9) 0.289440 (1,13,8) 0.232141 (1,13,10) -0.109322 (1,14,9) -0.137228
(1,13,10): (1,12,10) 0.124515 (1,13,9) 0.109322 (1,14,10) -6.423465E-02
(1,14,1): (1,13,1) 1.947795E-02 (1,14,2) 1.660836E-02 (1,15,1) -7.254687E-03
(1,14,2): (1,13,2) 4.993268E-02 (1,14,1) -1.660836E-02 (1,14,3) 4.240675E-02 (1,15,2) -1.780419E-02
(1,14,3): (1,13,3) 0.133245 (1,14,2) -4.240675E-02 (1,14,4) 7.512141E-02 (1,15,3) -4.531150E-02
(1,14,4): (1,13,4) 0.295224 (1,14,3) -7.512141E-02 (1,14,5) 8.530390E-02 (1,15,4) -9.527875E-02
(1,14,5): (1,13,5) 0.498258 (1,14,4) -8.530390E-02 (1,14,6) 3.341016E-02 (1,15,5) -0.153290
(1,14,6): (1,13,6) 0.568288 (1,14,5) -3.341016E-02 (1,14,7) -3.326237E-02 (1,15,6) -0.175570
(1,14,7): (1,13,7) 0.498475 (1,14,6) 3.326237E-02 (1,14,8) -8.479628E-02 (1,15,7) -0.153376
(1,14,8): (1,13,8) 0.296215 (1,14,7) 8.479628E-02 (1,14,9) -7.325491E-02 (1,15,8) -9.566454E-02
(1,14,9): (1,13,9) 0.137228 (1,14,8) 7.325491E-02 (1,14,10) -3.634915E-02 (1,15,9) -4.682507E-02
(1,14,10): (1,13,10) 6.423465E-02 (1,14,9) 3.634915E-02 (1,15,10) -2.306629E-02
(1,15,1): (1,14,1) 7.254687E-03 (1,15,2) 6.058982E-03
(1,15,2): (1,14,2) 1.780419E-02 (1,15,1) -6.058982E-03 (1,15,3) 1.490024E-02
(1,15,3): (1,14,3) 4.531150E-02 (1,15,2) -1.490024E-02 (1,15,4) 2.516419E-02
(1,15,4): (1,14,4) 9.527875E-02 (1,15,3) -2.516419E-02 (1,15,5) 2.733169E-02
(1,15,5): (1,14,5) 0.153290 (1,15,4) -2.733169E-02 (1,15,6) 1.116151E-02
(1,15,6): (1,14,6) 0.175570 (1,15,5) -1.116151E-02 (1,15,7) -1.109927E-02
(1,15,7): (1,14,7) 0.153376 (1,15,6) 1.109927E-02 (1,15,8) -2.712435E-02
(1,15,8): (1,14,8) 9.566454E-02 (1,15,7) 2.712435E-02 (1,15,9) -2.442634E-02
(1,15,9): (1,14,9) 4.682507E-02 (1,15,8) 2.442634E-02 (1,15,10) -1.259286E-02
(1,15,10): (1,14,10) 2.306629E-02 (1,15,9) 1.259286E-02

 WEL PACKAGE (WEL-1) FLOW RATES   PERIOD      2   STEP       37
 ----------------------------------------------------------------------------------------
   NUMBER   CELLID                    RATE       NAME                                    
 ----------------------------------------------------------------------------------------
     1      (1,8,6)              -216.84171      WEL                                     
 ----------------------------------------------------------------------------------------




 DRN PACKAGE (DRN-0) FLOW RATES   PERIOD      2   STEP       37
 ----------------------------------------------------------------------------------------
   NUMBER   CELLID                    RATE       NAME                                    
 ----------------------------------------------------------------------------------------
     1      (1,1,1)               0.0000000      SURF                                    
     2      (1,1,2)               0.0000000      SURF                                    
     3      (1,1,3)               0.0000000      SURF                                    
     4      (1,1,4)               0.0000000      SURF                                    
     5      (1,1,5)               0.0000000      SURF                                    
     6      (1,1,6)               0.0000000      SURF                                    
     7      (1,1,7)               0.0000000      SURF                                    
     8      (1,1,8)               0.0000000      SURF                                    
     9      (1,1,9)               0.0000000      SURF                                    
     10     (1,1,10)              0.0000000      SURF                                    
     11     (1,2,1)               0.0000000      SURF                                    
     12     (1,2,2)               0.0000000      SURF                                    
     13     (1,2,3)               0.0000000      SURF                                    
     14     (1,2,4)               0.0000000      SURF                                    
     15     (1,2,5)               0.0000000      SURF                                    
     16     (1,2,6)               0.0000000      SURF                                    
     17     (1,2,7)               0.0000000      SURF                                    
     18     (1,2,8)               0.0000000      SURF                                    
     19     (1,2,9)               0.0000000      SURF                                    
     20     (1,2,10)              0.0000000      SURF                                    
     21     (1,3,1)               0.0000000      SURF                                    
     22     (1,3,2)               0.0000000      SURF                                    
     23     (1,3,3)               0.0000000      SURF                                    
     24     (1,3,4)               0.0000000      SURF                                    
     25     (1,3,5)               0.0000000      SURF                                    
     26     (1,3,6)               0.0000000      SURF                                    
     27     (1,3,7)               0.0000000      SURF                                    
     28     (1,3,8)               0.0000000      SURF                                    
     29     (1,3,9)               0.0000000      SURF                                    
     30     (1,3,10)              0.0000000      SURF                                    
     31     (1,4,1)               0.0000000      SURF                                    
     32     (1,4,2)               0.0000000      SURF                                    
     33     (1,4,3)               0.0000000      SURF                                    
     34     (1,4,4)               0.0000000      SURF                                    
     35     (1,4,5)               0.0000000      SURF                                    
     36     (1,4,6)               0.0000000      SURF                                    
     37     (1,4,7)               0.0000000      SURF                                    
     38     (1,4,8)               0.0000000      SURF                                    
     39     (1,4,9)               0.0000000      SURF                                    
     40     (1,4,10)              0.0000000      SURF                                    
     41     (1,5,1)               0.0000000      SURF                                    
     42     (1,5,2)               0.0000000      SURF                                    
     43     (1,5,3)               0.0000000      SURF                                    
     44     (1,5,4)               0.0000000      SURF                                    
     45     (1,5,5)               0.0000000      SURF                                    
     46     (1,5,6)               0.0000000      SURF                                    
     47     (1,5,7)               0.0000000      SURF                                    
     48     (1,5,8)               0.0000000      SURF                                    
     49     (1,5,9)               0.0000000      SURF                                    
     50     (1,5,10)              0.0000000      SURF                                    
     51     (1,6,1)               0.0000000      SURF                                    
     52     (1,6,2)               0.0000000      SURF                                    
     53     (1,6,3)               0.0000000      SURF                                    
     54     (1,6,4)               0.0000000      SURF                                    
     55     (1,6,5)               0.0000000      SURF                                    
     56     (1,6,6)               0.0000000      SURF                                    
     57     (1,6,7)              -8.64383765E-09 SURF                                    
     58     (1,6,8)               0.0000000      SURF                                    
     59     (1,6,9)               0.0000000      SURF                                    
     60     (1,6,10)              0.0000000      SURF                                    
     61     (1,7,1)               0.0000000      SURF                                    
     62     (1,7,2)               0.0000000      SURF                                    
     63     (1,7,3)               0.0000000      SURF                                    
     64     (1,7,4)               0.0000000      SURF                                    
     65     (1,7,5)               0.0000000      SURF                                    
     66     (1,7,6)               0.0000000      SURF                                    
     67     (1,7,7)               0.0000000      SURF                                    
     68     (1,7,8)               0.0000000      SURF                                    
     69     (1,7,9)               0.0000000      SURF                                    
     70     (1,7,10)              0.0000000      SURF                                    
     71     (1,8,1)               0.0000000      SURF                                    
     72     (1,8,2)               0.0000000      SURF                                    
     73     (1,8,3)               0.0000000      SURF                                    
     74     (1,8,4)               0.0000000      SURF                                    
     75     (1,8,5)               0.0000000      SURF                                    
     76     (1,8,6)               0.0000000      SURF                                    
     77     (1,8,7)               0.0000000      SURF                                    
     78     (1,8,8)               0.0000000      SURF                                    
     79     (1,8,9)               0.0000000      SURF                                    
     80     (1,8,10)              0.0000000      SURF                                    
     81     (1,9,1)               0.0000000      SURF                                    
     82     (1,9,2)               0.0000000      SURF                                    
     83     (1,9,3)               0.0000000      SURF                                    
     84     (1,9,4)               0.0000000      SURF                                    
     85     (1,9,5)               0.0000000      SURF                                    
     86     (1,9,6)               0.0000000      SURF                                    
     87     (1,9,7)               0.0000000      SURF                                    
     88     (1,9,8)               0.0000000      SURF                                    
     89     (1,9,9)               0.0000000      SURF                                    
     90     (1,9,10)              0.0000000      SURF                                    
     91     (1,10,1)              0.0000000      SURF                                    
     92     (1,10,2)              0.0000000      SURF                                    
     93     (1,10,3)              0.0000000      SURF                                    
     94     (1,10,4)              0.0000000      SURF                                    
     95     (1,10,5)              0.0000000      SURF                                    
     96     (1,10,6)              0.0000000      SURF                                    
     97     (1,10,7)             -3.77011020E-07 SURF                                    
     98     (1,10,8)              0.0000000      SURF                                    
     99     (1,10,9)              0.0000000      SURF                                    
    100     (1,10,10)             0.0000000      SURF                                    
    101     (1,11,1)              0.0000000      SURF                                    
    102     (1,11,2)              0.0000000      SURF                                    
    103     (1,11,3)              0.0000000      SURF                                    
    104     (1,11,4)              0.0000000      SURF                                    
    105     (1,11,5)              0.0000000      SURF                                    
    106     (1,11,6)              0.0000000      SURF                                    
    107     (1,11,7)              0.0000000      SURF                                    
    108     (1,11,8)              0.0000000      SURF                                    
    109     (1,11,9)              0.0000000      SURF                                    
    110     (1,11,10)             0.0000000      SURF                                    
    111     (1,12,1)              0.0000000      SURF                                    
    112     (1,12,2)              0.0000000      SURF                                    
    113     (1,12,3)              0.0000000      SURF                                    
    114     (1,12,4)              0.0000000      SURF                                    
    115     (1,12,5)              0.0000000      SURF                                    
    116     (1,12,6)              0.0000000      SURF                                    
    117     (1,12,7)              0.0000000      SURF                                    
    118     (1,12,8)              0.0000000      SURF                                    
    119     (1,12,9)              0.0000000      SURF                                    
    120     (1,12,10)             0.0000000      SURF                                    
    121     (1,13,1)              0.0000000      SURF                                    
    122     (1,13,2)              0.0000000      SURF                                    
    123     (1,13,3)              0.0000000      SURF                                    
    124     (1,13,4)              0.0000000      SURF                                    
    125     (1,13,5)              0.0000000      SURF                                    
    126     (1,13,6)              0.0000000      SURF                                    
    127     (1,13,7)              0.0000000      SURF                                    
    128     (1,13,8)              0.0000000      SURF                                    
    129     (1,13,9)              0.0000000      SURF                                    
    130     (1,13,10)             0.0000000      SURF                                    
    131     (1,14,1)              0.0000000      SURF                                    
    132     (1,14,2)              0.0000000      SURF                                    
    133     (1,14,3)              0.0000000      SURF                                    
    134     (1,14,4)              0.0000000      SURF                                    
    135     (1,14,5)              0.0000000      SURF                                    
    136     (1,14,6)              0.0000000      SURF                                    
    137     (1,14,7)              0.0000000      SURF                                    
    138     (1,14,8)              0.0000000      SURF                                    
    139     (1,14,9)              0.0000000      SURF                                    
    140     (1,14,10)             0.0000000      SURF                                    
    141     (1,15,1)              0.0000000      SURF                                    
    142     (1,15,2)              0.0000000      SURF                                    
    143     (1,15,3)              0.0000000      SURF                                    
    144     (1,15,4)              0.0000000      SURF                                    
    145     (1,15,5)              0.0000000      SURF                                    
    146     (1,15,6)              0.0000000      SURF                                    
    147     (1,15,7)              0.0000000      SURF                                    
    148     (1,15,8)              0.0000000      SURF                                    
    149     (1,15,9)              0.0000000      SURF                                    
    150     (1,15,10)             0.0000000      SURF                                    
 ----------------------------------------------------------------------------------------




 API PACKAGE (MAR) FLOW RATES   PERIOD      2   STEP       37
 -----------------------------------------------
   NUMBER   CELLID                    RATE      
 -----------------------------------------------
     1      (1,6,5)               34.077509     
     2      (1,6,6)               34.077509     
     3      (1,6,7)               34.077509     
     4      (1,10,5)              34.346510     
     5      (1,10,6)              34.346510     
     6      (1,10,7)              34.346510     
 -----------------------------------------------



1
  HEAD IN LAYER   1 AT END OF TIME STEP  37 IN STRESS PERIOD    2
  ---------------------------------------------------------------------------

            1           2           3           4           5           6           7           8           9          10
 ........................................................................................................................
   1   7.5579E-04  1.6195E-03  3.6491E-03  6.9166E-03  1.0346E-02  1.1753E-02  1.0358E-02  6.9652E-03  3.8187E-03  2.1417E-03
   2   1.8000E-03  4.0011E-03  9.3550E-03  1.8372E-02  2.8243E-02  3.2140E-02  2.8270E-02  1.8483E-02  9.7518E-03  5.2605E-03
   3   4.4693E-03  1.0331E-02  2.5198E-02  5.1771E-02  8.2813E-02  9.4050E-02  8.2875E-02  5.2034E-02  2.6165E-02  1.3495E-02
   4   9.1254E-03  2.2034E-02  5.6699E-02  0.1246      0.2143      0.2402      0.2144      0.1251      5.8629E-02  2.8562E-02
   5   1.3683E-02  3.4616E-02  9.5867E-02  0.2372      0.4831      0.5161      0.4833      0.2379      9.8697E-02  4.4480E-02
   6   1.1602E-02  2.9512E-02  8.9376E-02  0.2874      0.9999      0.9043       1.000      0.2880      9.1796E-02  3.7801E-02
   7  -1.7758E-03 -1.4050E-02 -6.9026E-02 -0.2571     -0.7736      -2.024     -0.7736     -0.2570     -6.9002E-02 -1.6008E-02
   8  -1.1422E-02 -4.5666E-02 -0.1888     -0.7046      -2.465      -9.213      -2.465     -0.7049     -0.1905     -5.5003E-02
   9  -4.0243E-03 -1.7898E-02 -7.5279E-02 -0.2643     -0.7779      -2.027     -0.7779     -0.2643     -7.5809E-02 -2.1314E-02
  10   8.1252E-03  2.3603E-02  8.0047E-02  0.2781      0.9999      0.9066       1.000      0.2785      8.1619E-02  2.9649E-02
  11   1.0284E-02  2.8609E-02  8.5478E-02  0.2235      0.4703      0.5033      0.4704      0.2240      8.7487E-02  3.6261E-02
  12   6.7098E-03  1.7610E-02  4.8487E-02  0.1121      0.1992      0.2240      0.1993      0.1125      4.9836E-02  2.2550E-02
  13   3.1394E-03  7.8420E-03  2.0388E-02  4.3985E-02  7.2569E-02  8.2797E-02  7.2605E-02  4.4148E-02  2.1036E-02  1.0127E-02
  14   1.1922E-03  2.8526E-03  7.0903E-03  1.4591E-02  2.3102E-02  2.6434E-02  2.3117E-02  1.4657E-02  7.3421E-03  3.7099E-03
  15   4.6687E-04  1.0727E-03  2.5623E-03  5.0775E-03  7.8085E-03  8.9237E-03  7.8147E-03  5.1044E-03  2.6630E-03  1.4041E-03

 HEAD WILL BE SAVED ON UNIT 1100 AT END OF TIME STEP   37, STRESS PERIOD    2


  VOLUME BUDGET FOR ENTIRE MODEL AT END OF TIME STEP   37, STRESS PERIOD   2
  ---------------------------------------------------------------------------------------------------

     CUMULATIVE VOLUME      L**3       RATES FOR THIS TIME STEP      L**3/T          PACKAGE NAME    
     ------------------                 ------------------------                     ----------------

           IN:                                      IN:
           ---                                      ---
              STO-SS =          19.5973                STO-SS =       2.0381E-02     STORAGE                          
              STO-SY =       50052.0366                STO-SY =          45.1994     STORAGE                          
                 WEL =           0.0000                   WEL =           0.0000     WEL-1                            
                 DRN =           0.0000                   DRN =           0.0000     DRN-0                            
                 API =       74217.7755                   API =         205.2721     MAR                              
                 CHD =       2.0279E-08                   CHD =           0.0000     CHD_0                            

            TOTAL IN =      124289.4094              TOTAL IN =         250.4918

          OUT:                                     OUT:
          ----                                     ----
              STO-SS =          15.9456                STO-SS =       1.7057E-02     STORAGE                          
              STO-SY =       31039.1643                STO-SY =          33.6330     STORAGE                          
                 WEL =       93234.2993                   WEL =         216.8417     WEL-1                            
                 DRN =       1.1835E-04                   DRN =       3.8565E-07     DRN-0                            
                 API =           0.0000                   API =           0.0000     MAR                              
                 CHD =       2.0705E-08                   CHD =           0.0000     CHD_0                            

           TOTAL OUT =      124289.4094             TOTAL OUT =         250.4918

            IN - OUT =      -9.0904E-07              IN - OUT =      -3.0756E-09

 PERCENT DISCREPANCY =          -0.00     PERCENT DISCREPANCY =          -0.00




         TIME SUMMARY AT END OF TIME STEP   37 IN STRESS PERIOD    2
                    SECONDS     MINUTES      HOURS       DAYS        YEARS
                    -----------------------------------------------------------
   TIME STEP LENGTH 8.64000E+05  14400.      240.00      10.000     2.73785E-02
 STRESS PERIOD TIME 3.19680E+07 5.32800E+05  8880.0      370.00      1.0130    
         TOTAL TIME 3.20544E+07 5.34240E+05  8904.0      371.00      1.0157    


end timestep


start timestep kper="2" kstp="38" mode="normal"

 UBDSV1 SAVING           STO-SS ON UNIT   1099 AT TIME STEP     38, STRESS PERIOD      2
 UBDSV1 SAVING           STO-SY ON UNIT   1099 AT TIME STEP     38, STRESS PERIOD      2
 UBDSV1 SAVING     FLOW-JA-FACE ON UNIT   1099 AT TIME STEP     38, STRESS PERIOD      2
 UBDSV06 SAVING       DATA-SPDIS IN MODEL GWF              PACKAGE NPF             CONNECTED TO MODEL GWF              PACKAGE NPF              ON UNIT   1099 AT TIME STEP     38, STRESS PERIOD      2
 UBDSV06 SAVING              WEL IN MODEL GWF              PACKAGE GWF             CONNECTED TO MODEL GWF              PACKAGE WEL-1            ON UNIT   1099 AT TIME STEP     38, STRESS PERIOD      2
 UBDSV06 SAVING              DRN IN MODEL GWF              PACKAGE GWF             CONNECTED TO MODEL GWF              PACKAGE DRN-0            ON UNIT   1099 AT TIME STEP     38, STRESS PERIOD      2
 UBDSV06 SAVING              API IN MODEL GWF              PACKAGE GWF             CONNECTED TO MODEL GWF              PACKAGE MAR              ON UNIT   1099 AT TIME STEP     38, STRESS PERIOD      2
 UBDSV06 SAVING              CHD IN MODEL GWF              PACKAGE GWF             CONNECTED TO MODEL GWF              PACKAGE CHD_0            ON UNIT   1099 AT TIME STEP     38, STRESS PERIOD      2

    CALCULATED INTERCELL FLOW FOR PERIOD 2 STEP 38
(1,1,1): (1,1,2) 9.502369E-03 (1,2,1) 1.144725E-02
(1,1,2): (1,1,1) -9.502369E-03 (1,1,3) 2.207326E-02 (1,2,2) 2.564910E-02
(1,1,3): (1,1,2) -2.207326E-02 (1,1,4) 3.510993E-02 (1,2,3) 6.058400E-02
(1,1,4): (1,1,3) -3.510993E-02 (1,1,5) 3.651344E-02 (1,2,4) 0.120400
(1,1,5): (1,1,4) -3.651344E-02 (1,1,6) 1.496338E-02 (1,2,5) 0.186987
(1,1,6): (1,1,5) -1.496338E-02 (1,1,7) -1.482108E-02 (1,2,6) 0.212744
(1,1,7): (1,1,6) 1.482108E-02 (1,1,8) -3.608660E-02 (1,2,7) 0.187157
(1,1,8): (1,1,7) 3.608660E-02 (1,1,9) -3.372725E-02 (1,2,8) 0.121103
(1,1,9): (1,1,8) 3.372725E-02 (1,1,10) -1.812161E-02 (1,2,9) 6.310559E-02
(1,1,10): (1,1,9) 1.812161E-02 (1,2,10) 3.368179E-02
(1,2,1): (1,1,1) -1.144725E-02 (1,2,2) 2.370395E-02 (1,3,1) 2.876804E-02
(1,2,2): (1,1,2) -2.564910E-02 (1,2,1) -2.370395E-02 (1,2,3) 5.700690E-02 (1,3,2) 6.703098E-02
(1,2,3): (1,1,3) -6.058400E-02 (1,2,2) -5.700690E-02 (1,2,4) 9.491051E-02 (1,3,3) 0.165616
(1,2,4): (1,1,4) -0.120400 (1,2,3) -9.491051E-02 (1,2,5) 0.103045 (1,3,4) 0.346385
(1,2,5): (1,1,5) -0.186987 (1,2,4) -0.103045 (1,2,6) 4.067645E-02 (1,3,5) 0.564057
(1,2,6): (1,1,6) -0.212744 (1,2,5) -4.067645E-02 (1,2,7) -4.036430E-02 (1,3,6) 0.639797
(1,2,7): (1,1,7) -0.187157 (1,2,6) 4.036430E-02 (1,2,8) -0.102084 (1,3,7) 0.564465
(1,2,8): (1,1,8) -0.121103 (1,2,7) 0.102084 (1,2,9) -9.170798E-02 (1,3,8) 0.348092
(1,2,9): (1,1,9) -6.310559E-02 (1,2,8) 9.170798E-02 (1,2,10) -4.754084E-02 (1,3,9) 0.171851
(1,2,10): (1,1,10) -3.368179E-02 (1,2,9) 4.754084E-02 (1,3,10) 8.745815E-02
(1,3,1): (1,2,1) -2.876804E-02 (1,3,2) 6.196495E-02 (1,4,1) 4.906423E-02
(1,3,2): (1,2,2) -6.703098E-02 (1,3,1) -6.196495E-02 (1,3,3) 0.155582 (1,4,2) 0.121329
(1,3,3): (1,2,3) -0.165616 (1,3,2) -0.155582 (1,3,4) 0.275553 (1,4,3) 0.323480
(1,3,4): (1,2,4) -0.346385 (1,3,3) -0.275553 (1,3,5) 0.320197 (1,4,4) 0.746635
(1,3,5): (1,2,5) -0.564057 (1,3,4) -0.320197 (1,3,6) 0.116031 (1,4,5) 1.35434
(1,3,6): (1,2,6) -0.639797 (1,3,5) -0.116031 (1,3,7) -0.115312 (1,4,6) 1.50815
(1,3,7): (1,2,7) -0.564465 (1,3,6) 0.115312 (1,3,8) -0.317936 (1,4,7) 1.35500
(1,3,8): (1,2,8) -0.348092 (1,3,7) 0.317936 (1,3,9) -0.267809 (1,4,8) 0.749409
(1,3,9): (1,2,9) -0.171851 (1,3,8) 0.267809 (1,3,10) -0.131901 (1,4,9) 0.333859
(1,3,10): (1,2,10) -8.745815E-02 (1,3,9) 0.131901 (1,4,10) 0.156695
(1,4,1): (1,3,1) -4.906423E-02 (1,4,2) 0.134239 (1,5,1) 4.621867E-02
(1,4,2): (1,3,2) -0.121329 (1,4,1) -0.134239 (1,4,3) 0.357802 (1,5,2) 0.126027
(1,4,3): (1,3,3) -0.323480 (1,4,2) -0.357802 (1,4,4) 0.698511 (1,5,3) 0.392340
(1,4,4): (1,3,4) -0.746635 (1,4,3) -0.698511 (1,4,5) 0.925430 (1,5,4) 1.14468
(1,4,5): (1,3,5) -1.35434 (1,4,4) -0.925430 (1,4,6) 0.268070 (1,5,5) 2.80885
(1,4,6): (1,3,6) -1.50815 (1,4,5) -0.268070 (1,4,7) -0.266696 (1,5,6) 2.89011
(1,4,7): (1,3,7) -1.35500 (1,4,6) 0.266696 (1,4,8) -0.921035 (1,5,7) 2.80945
(1,4,8): (1,3,8) -0.749409 (1,4,7) 0.921035 (1,4,9) -0.683092 (1,5,8) 1.14714
(1,4,9): (1,3,9) -0.333859 (1,4,8) 0.683092 (1,4,10) -0.309021 (1,5,9) 0.401751
(1,4,10): (1,3,10) -0.156695 (1,4,9) 0.309021 (1,5,10) 0.159869
(1,5,1): (1,4,1) -4.621867E-02 (1,5,2) 0.214117 (1,6,1) -2.493511E-02
(1,5,2): (1,4,2) -0.126027 (1,5,1) -0.214117 (1,5,3) 0.624720 (1,6,2) -6.113266E-02
(1,5,3): (1,4,3) -0.392340 (1,5,2) -0.624720 (1,5,4) 1.45305 (1,6,3) -8.906706E-02
(1,5,4): (1,4,4) -1.14468 (1,5,3) -1.45305 (1,5,5) 2.58628 (1,6,4) 0.475672
(1,5,5): (1,4,5) -2.80885 (1,5,4) -2.58628 (1,5,6) 0.347669 (1,6,5) 5.65055
(1,5,6): (1,4,6) -2.89011 (1,5,5) -0.347669 (1,5,7) -0.345700 (1,6,6) 4.20159
(1,5,7): (1,4,7) -2.80945 (1,5,6) 0.345700 (1,5,8) -2.57993 (1,6,7) 5.65035
(1,5,8): (1,4,8) -1.14714 (1,5,7) 2.57993 (1,5,9) -1.43048 (1,6,8) 0.474492
(1,5,9): (1,4,9) -0.401751 (1,5,8) 1.43048 (1,5,10) -0.551256 (1,6,9) -9.409152E-02
(1,5,10): (1,4,10) -0.159869 (1,5,9) 0.551256 (1,6,10) -7.999260E-02
(1,6,1): (1,5,1) 2.493511E-02 (1,6,2) 0.177864 (1,7,1) -0.141644
(1,6,2): (1,5,2) 6.113266E-02 (1,6,1) -0.177864 (1,6,3) 0.596641 (1,7,2) -0.454008
(1,6,3): (1,5,3) 8.906706E-02 (1,6,2) -0.596641 (1,6,4) 2.02601 (1,7,3) -1.63775
(1,6,4): (1,5,4) -0.475672 (1,6,3) -2.02601 (1,6,5) 7.85484 (1,7,4) -5.67923
(1,6,5): (1,5,5) -5.65055 (1,6,4) -7.85484 (1,6,6) -1.04868 (1,7,5) -19.6416
(1,6,6): (1,5,6) -4.20159 (1,6,5) 1.04868 (1,6,7) 1.05047 (1,7,6) -32.0539
(1,6,7): (1,5,7) -5.65035 (1,6,6) -1.05047 (1,6,8) -7.84925 (1,7,7) -19.6430
(1,6,8): (1,5,8) -0.474492 (1,6,7) 7.84925 (1,6,9) -2.00724 (1,7,8) -5.68532
(1,6,9): (1,5,9) 9.409152E-02 (1,6,8) 2.00724 (1,6,10) -0.537096 (1,7,9) -1.66402
(1,6,10): (1,5,10) 7.999260E-02 (1,6,9) 0.537096 (1,7,10) -0.562624
(1,7,1): (1,6,1) 0.141644 (1,7,2) -0.133822 (1,8,1) -0.100745
(1,7,2): (1,6,2) 0.454008 (1,7,1) 0.133822 (1,7,3) -0.578376 (1,8,2) -0.324632
(1,7,3): (1,6,3) 1.63775 (1,7,2) 0.578376 (1,7,4) -1.91420 (1,8,3) -1.20795
(1,7,4): (1,6,4) 5.67923 (1,7,3) 1.91420 (1,7,5) -5.05554 (1,8,4) -4.38880
(1,7,5): (1,6,5) 19.6416 (1,7,4) 5.05554 (1,7,6) -11.5106 (1,8,5) -15.6145
(1,7,6): (1,6,6) 32.0539 (1,7,5) 11.5106 (1,7,7) 11.5112 (1,8,6) -57.1924
(1,7,7): (1,6,7) 19.6430 (1,7,6) -11.5112 (1,7,8) 5.05627 (1,8,7) -15.6155
(1,7,8): (1,6,8) 5.68532 (1,7,7) -5.05627 (1,7,9) 1.91252 (1,8,8) -4.39315
(1,7,9): (1,6,9) 1.66402 (1,7,8) -1.91252 (1,7,10) 0.555235 (1,8,9) -1.22657
(1,7,10): (1,6,10) 0.562624 (1,7,9) -0.555235 (1,8,10) -0.401152
(1,8,1): (1,7,1) 0.100745 (1,8,2) -0.357783 (1,9,1) 7.799569E-02
(1,8,2): (1,7,2) 0.324632 (1,8,1) 0.357783 (1,8,3) -1.46396 (1,9,2) 0.286614
(1,8,3): (1,7,3) 1.20795 (1,8,2) 1.46396 (1,8,4) -5.11847 (1,9,3) 1.14740
(1,8,4): (1,7,4) 4.38880 (1,8,3) 5.11847 (1,8,5) -16.3665 (1,9,4) 4.32024
(1,8,5): (1,7,5) 15.6145 (1,8,4) 16.3665 (1,8,6) -50.6451 (1,9,5) 15.5720
(1,8,6): (1,7,6) 57.1924 (1,8,5) 50.6451 (1,8,7) 50.6445 (1,9,6) 57.1513
(1,8,7): (1,7,7) 15.6155 (1,8,6) -50.6445 (1,8,8) 16.3634 (1,9,7) 15.5725
(1,8,8): (1,7,8) 4.39315 (1,8,7) -16.3634 (1,8,9) 5.10175 (1,9,8) 4.32270
(1,8,9): (1,7,9) 1.22657 (1,8,8) -5.10175 (1,8,10) 1.38194 (1,9,9) 1.16032
(1,8,10): (1,7,10) 0.401152 (1,8,9) -1.38194 (1,9,10) 0.348522
(1,9,1): (1,8,1) -7.799569E-02 (1,9,2) -0.149016 (1,10,1) 0.129037
(1,9,2): (1,8,2) -0.286614 (1,9,1) 0.149016 (1,9,3) -0.600445 (1,10,2) 0.433073
(1,9,3): (1,8,3) -1.14740 (1,9,2) 0.600445 (1,9,4) -1.92004 (1,10,3) 1.60574
(1,9,4): (1,8,4) -4.32024 (1,9,3) 1.92004 (1,9,5) -5.02446 (1,10,4) 5.65266
(1,9,5): (1,8,5) -15.5720 (1,9,4) 5.02446 (1,9,6) -11.4948 (1,10,5) 19.6854
(1,9,6): (1,8,6) -57.1513 (1,9,5) 11.4948 (1,9,7) 11.4949 (1,10,6) 32.1145
(1,9,7): (1,8,7) -15.5725 (1,9,6) -11.4949 (1,9,8) 5.02378 (1,10,7) 19.6865
(1,9,8): (1,8,8) -4.32270 (1,9,7) -5.02378 (1,9,9) 1.91447 (1,10,8) 5.65764
(1,9,9): (1,8,9) -1.16032 (1,9,8) -1.91447 (1,9,10) 0.568332 (1,10,9) 1.62877
(1,9,10): (1,8,10) -0.348522 (1,9,9) -0.568332 (1,10,10) 0.533535
(1,10,1): (1,9,1) -0.129037 (1,10,2) 0.154400 (1,11,1) 2.541440E-02
(1,10,2): (1,9,2) -0.433073 (1,10,1) -0.154400 (1,10,3) 0.563836 (1,11,2) 5.959534E-02
(1,10,3): (1,9,3) -1.60574 (1,10,2) -0.563836 (1,10,4) 2.02648 (1,11,3) 7.769215E-02
(1,10,4): (1,9,4) -5.65266 (1,10,3) -2.02648 (1,10,5) 7.95300 (1,11,4) -0.520017
(1,10,5): (1,9,5) -19.6854 (1,10,4) -7.95300 (1,10,6) -1.02484 (1,11,5) -5.78696
(1,10,6): (1,9,6) -32.1145 (1,10,5) 1.02484 (1,10,7) 1.02581 (1,11,6) -4.35981
(1,10,7): (1,9,7) -19.6865 (1,10,6) -1.02581 (1,10,8) -7.94961 (1,11,7) -5.78672
(1,10,8): (1,9,8) -5.65764 (1,10,7) 7.94961 (1,10,9) -2.01374 (1,11,8) -0.518772
(1,10,9): (1,9,9) -1.62877 (1,10,8) 2.01374 (1,10,10) -0.518215 (1,11,9) 8.289198E-02
(1,10,10): (1,9,10) -0.533535 (1,10,9) 0.518215 (1,11,10) 7.853198E-02
(1,11,1): (1,10,1) -2.541440E-02 (1,11,2) 0.188625 (1,12,1) -3.648149E-02
(1,11,2): (1,10,2) -5.959534E-02 (1,11,1) -0.188625 (1,11,3) 0.582021 (1,12,2) -0.110730
(1,11,3): (1,10,3) -7.769215E-02 (1,11,2) -0.582021 (1,11,4) 1.42028 (1,12,3) -0.371687
(1,11,4): (1,10,4) 0.520017 (1,11,3) -1.42028 (1,11,5) 2.59243 (1,12,4) -1.13297
(1,11,5): (1,10,5) 5.78696 (1,11,4) -2.59243 (1,11,6) 0.348706 (1,12,5) -2.83009
(1,11,6): (1,10,6) 4.35981 (1,11,5) -0.348706 (1,11,7) -0.347515 (1,12,6) -2.92330
(1,11,7): (1,10,7) 5.78672 (1,11,6) 0.347515 (1,11,8) -2.58815 (1,12,7) -2.83045
(1,11,8): (1,10,8) 0.518772 (1,11,7) 2.58815 (1,11,9) -1.40360 (1,12,8) -1.13460
(1,11,9): (1,10,9) -8.289198E-02 (1,11,8) 1.40360 (1,11,10) -0.522592 (1,12,9) -0.378618
(1,11,10): (1,10,10) -7.853198E-02 (1,11,9) 0.522592 (1,12,10) -0.138399
(1,12,1): (1,11,1) 3.648149E-02 (1,12,2) 0.114319 (1,13,1) -3.801898E-02
(1,12,2): (1,11,2) 0.110730 (1,12,1) -0.114319 (1,12,3) 0.320526 (1,13,2) -0.102074
(1,12,3): (1,11,3) 0.371687 (1,12,2) -0.320526 (1,12,4) 0.656915 (1,13,3) -0.290157
(1,12,4): (1,11,4) 1.13297 (1,12,3) -0.656915 (1,12,5) 0.898926 (1,13,4) -0.701127
(1,12,5): (1,11,5) 2.83009 (1,12,4) -0.898926 (1,12,6) 0.257459 (1,13,5) -1.30641
(1,12,6): (1,11,6) 2.92330 (1,12,5) -0.257459 (1,12,7) -0.256624 (1,13,6) -1.45943
(1,12,7): (1,11,7) 2.83045 (1,12,6) 0.256624 (1,12,8) -0.895987 (1,13,7) -1.30682
(1,12,8): (1,11,8) 1.13460 (1,12,7) 0.895987 (1,12,9) -0.645690 (1,13,8) -0.703006
(1,12,9): (1,11,9) 0.378618 (1,12,8) 0.645690 (1,12,10) -0.282034 (1,13,9) -0.297796
(1,12,10): (1,11,10) 0.138399 (1,12,9) 0.282034 (1,13,10) -0.130259
(1,13,1): (1,12,1) 3.801898E-02 (1,13,2) 5.025589E-02 (1,14,1) -2.126370E-02
(1,13,2): (1,12,2) 0.102074 (1,13,1) -5.025589E-02 (1,13,3) 0.132386 (1,14,2) -5.340333E-02
(1,13,3): (1,12,3) 0.290157 (1,13,2) -0.132386 (1,13,4) 0.246122 (1,14,3) -0.140181
(1,13,4): (1,12,4) 0.701127 (1,13,3) -0.246122 (1,13,5) 0.295991 (1,14,4) -0.306765
(1,13,5): (1,12,5) 1.30641 (1,13,4) -0.295991 (1,13,6) 0.106157 (1,14,5) -0.513742
(1,13,6): (1,12,6) 1.45943 (1,13,5) -0.106157 (1,13,7) -0.105732 (1,14,6) -0.585174
(1,13,7): (1,12,7) 1.30682 (1,13,6) 0.105732 (1,13,8) -0.294531 (1,14,7) -0.513991
(1,13,8): (1,12,8) 0.703006 (1,13,7) 0.294531 (1,13,9) -0.240706 (1,14,8) -0.307883
(1,13,9): (1,12,9) 0.297796 (1,13,8) 0.240706 (1,13,10) -0.114522 (1,14,9) -0.144584
(1,13,10): (1,12,10) 0.130259 (1,13,9) 0.114522 (1,14,10) -6.890974E-02
(1,14,1): (1,13,1) 2.126370E-02 (1,14,2) 1.811727E-02 (1,15,1) -8.077304E-03
(1,14,2): (1,13,2) 5.340333E-02 (1,14,1) -1.811727E-02 (1,14,3) 4.561566E-02 (1,15,2) -1.942444E-02
(1,14,3): (1,13,3) 0.140181 (1,14,2) -4.561566E-02 (1,14,4) 7.963775E-02 (1,15,3) -4.861789E-02
(1,14,4): (1,13,4) 0.306765 (1,14,3) -7.963775E-02 (1,14,5) 8.945626E-02 (1,15,4) -0.100930
(1,14,5): (1,13,5) 0.513742 (1,14,4) -8.945626E-02 (1,14,6) 3.505877E-02 (1,15,5) -0.161058
(1,14,6): (1,13,6) 0.585174 (1,14,5) -3.505877E-02 (1,14,7) -3.488274E-02 (1,15,6) -0.184160
(1,14,7): (1,13,7) 0.513991 (1,14,6) 3.488274E-02 (1,14,8) -8.886623E-02 (1,15,7) -0.161159
(1,14,8): (1,13,8) 0.307883 (1,14,7) 8.886623E-02 (1,14,9) -7.751523E-02 (1,15,8) -0.101373
(1,14,9): (1,13,9) 0.144584 (1,14,8) 7.751523E-02 (1,14,10) -3.887065E-02 (1,15,9) -5.032395E-02
(1,14,10): (1,13,10) 6.890974E-02 (1,14,9) 3.887065E-02 (1,15,10) -2.524226E-02
(1,15,1): (1,14,1) 8.077304E-03 (1,15,2) 6.770284E-03
(1,15,2): (1,14,2) 1.942444E-02 (1,15,1) -6.770284E-03 (1,15,3) 1.642309E-02
(1,15,3): (1,14,3) 4.861789E-02 (1,15,2) -1.642309E-02 (1,15,4) 2.733715E-02
(1,15,4): (1,14,4) 0.100930 (1,15,3) -2.733715E-02 (1,15,5) 2.937022E-02
(1,15,5): (1,14,5) 0.161058 (1,15,4) -2.937022E-02 (1,15,6) 1.199145E-02
(1,15,6): (1,14,6) 0.184160 (1,15,5) -1.199145E-02 (1,15,7) -1.191565E-02
(1,15,7): (1,14,7) 0.161159 (1,15,6) 1.191565E-02 (1,15,8) -2.912361E-02
(1,15,8): (1,14,8) 0.101373 (1,15,7) 2.912361E-02 (1,15,9) -2.647816E-02
(1,15,9): (1,14,9) 5.032395E-02 (1,15,8) 2.647816E-02 (1,15,10) -1.379182E-02
(1,15,10): (1,14,10) 2.524226E-02 (1,15,9) 1.379182E-02

 WEL PACKAGE (WEL-1) FLOW RATES   PERIOD      2   STEP       38
 ----------------------------------------------------------------------------------------
   NUMBER   CELLID                    RATE       NAME                                    
 ----------------------------------------------------------------------------------------
     1      (1,8,6)              -216.11614      WEL                                     
 ----------------------------------------------------------------------------------------




 DRN PACKAGE (DRN-0) FLOW RATES   PERIOD      2   STEP       38
 ----------------------------------------------------------------------------------------
   NUMBER   CELLID                    RATE       NAME                                    
 ----------------------------------------------------------------------------------------
     1      (1,1,1)               0.0000000      SURF                                    
     2      (1,1,2)               0.0000000      SURF                                    
     3      (1,1,3)               0.0000000      SURF                                    
     4      (1,1,4)               0.0000000      SURF                                    
     5      (1,1,5)               0.0000000      SURF                                    
     6      (1,1,6)               0.0000000      SURF                                    
     7      (1,1,7)               0.0000000      SURF                                    
     8      (1,1,8)               0.0000000      SURF                                    
     9      (1,1,9)               0.0000000      SURF                                    
     10     (1,1,10)              0.0000000      SURF                                    
     11     (1,2,1)               0.0000000      SURF                                    
     12     (1,2,2)               0.0000000      SURF                                    
     13     (1,2,3)               0.0000000      SURF                                    
     14     (1,2,4)               0.0000000      SURF                                    
     15     (1,2,5)               0.0000000      SURF                                    
     16     (1,2,6)               0.0000000      SURF                                    
     17     (1,2,7)               0.0000000      SURF                                    
     18     (1,2,8)               0.0000000      SURF                                    
     19     (1,2,9)               0.0000000      SURF                                    
     20     (1,2,10)              0.0000000      SURF                                    
     21     (1,3,1)               0.0000000      SURF                                    
     22     (1,3,2)               0.0000000      SURF                                    
     23     (1,3,3)               0.0000000      SURF                                    
     24     (1,3,4)               0.0000000      SURF                                    
     25     (1,3,5)               0.0000000      SURF                                    
     26     (1,3,6)               0.0000000      SURF                                    
     27     (1,3,7)               0.0000000      SURF                                    
     28     (1,3,8)               0.0000000      SURF                                    
     29     (1,3,9)               0.0000000      SURF                                    
     30     (1,3,10)              0.0000000      SURF                                    
     31     (1,4,1)               0.0000000      SURF                                    
     32     (1,4,2)               0.0000000      SURF                                    
     33     (1,4,3)               0.0000000      SURF                                    
     34     (1,4,4)               0.0000000      SURF                                    
     35     (1,4,5)               0.0000000      SURF                                    
     36     (1,4,6)               0.0000000      SURF                                    
     37     (1,4,7)               0.0000000      SURF                                    
     38     (1,4,8)               0.0000000      SURF                                    
     39     (1,4,9)               0.0000000      SURF                                    
     40     (1,4,10)              0.0000000      SURF                                    
     41     (1,5,1)               0.0000000      SURF                                    
     42     (1,5,2)               0.0000000      SURF                                    
     43     (1,5,3)               0.0000000      SURF                                    
     44     (1,5,4)               0.0000000      SURF                                    
     45     (1,5,5)               0.0000000      SURF                                    
     46     (1,5,6)               0.0000000      SURF                                    
     47     (1,5,7)               0.0000000      SURF                                    
     48     (1,5,8)               0.0000000      SURF                                    
     49     (1,5,9)               0.0000000      SURF                                    
     50     (1,5,10)              0.0000000      SURF                                    
     51     (1,6,1)               0.0000000      SURF                                    
     52     (1,6,2)               0.0000000      SURF                                    
     53     (1,6,3)               0.0000000      SURF                                    
     54     (1,6,4)               0.0000000      SURF                                    
     55     (1,6,5)               0.0000000      SURF                                    
     56     (1,6,6)               0.0000000      SURF                                    
     57     (1,6,7)              -8.77480488E-09 SURF                                    
     58     (1,6,8)               0.0000000      SURF                                    
     59     (1,6,9)               0.0000000      SURF                                    
     60     (1,6,10)              0.0000000      SURF                                    
     61     (1,7,1)               0.0000000      SURF                                    
     62     (1,7,2)               0.0000000      SURF                                    
     63     (1,7,3)               0.0000000      SURF                                    
     64     (1,7,4)               0.0000000      SURF                                    
     65     (1,7,5)               0.0000000      SURF                                    
     66     (1,7,6)               0.0000000      SURF                                    
     67     (1,7,7)               0.0000000      SURF                                    
     68     (1,7,8)               0.0000000      SURF                                    
     69     (1,7,9)               0.0000000      SURF                                    
     70     (1,7,10)              0.0000000      SURF                                    
     71     (1,8,1)               0.0000000      SURF                                    
     72     (1,8,2)               0.0000000      SURF                                    
     73     (1,8,3)               0.0000000      SURF                                    
     74     (1,8,4)               0.0000000      SURF                                    
     75     (1,8,5)               0.0000000      SURF                                    
     76     (1,8,6)               0.0000000      SURF                                    
     77     (1,8,7)               0.0000000      SURF                                    
     78     (1,8,8)               0.0000000      SURF                                    
     79     (1,8,9)               0.0000000      SURF                                    
     80     (1,8,10)              0.0000000      SURF                                    
     81     (1,9,1)               0.0000000      SURF                                    
     82     (1,9,2)               0.0000000      SURF                                    
     83     (1,9,3)               0.0000000      SURF                                    
     84     (1,9,4)               0.0000000      SURF                                    
     85     (1,9,5)               0.0000000      SURF                                    
     86     (1,9,6)               0.0000000      SURF                                    
     87     (1,9,7)               0.0000000      SURF                                    
     88     (1,9,8)               0.0000000      SURF                                    
     89     (1,9,9)               0.0000000      SURF                                    
     90     (1,9,10)              0.0000000      SURF                                    
     91     (1,10,1)              0.0000000      SURF                                    
     92     (1,10,2)              0.0000000      SURF                                    
     93     (1,10,3)              0.0000000      SURF                                    
     94     (1,10,4)              0.0000000      SURF                                    
     95     (1,10,5)              0.0000000      SURF                                    
     96     (1,10,6)              0.0000000      SURF                                    
     97     (1,10,7)             -3.72674549E-07 SURF                                    
     98     (1,10,8)              0.0000000      SURF                                    
     99     (1,10,9)              0.0000000      SURF                                    
    100     (1,10,10)             0.0000000      SURF                                    
    101     (1,11,1)              0.0000000      SURF                                    
    102     (1,11,2)              0.0000000      SURF                                    
    103     (1,11,3)              0.0000000      SURF                                    
    104     (1,11,4)              0.0000000      SURF                                    
    105     (1,11,5)              0.0000000      SURF                                    
    106     (1,11,6)              0.0000000      SURF                                    
    107     (1,11,7)              0.0000000      SURF                                    
    108     (1,11,8)              0.0000000      SURF                                    
    109     (1,11,9)              0.0000000      SURF                                    
    110     (1,11,10)             0.0000000      SURF                                    
    111     (1,12,1)              0.0000000      SURF                                    
    112     (1,12,2)              0.0000000      SURF                                    
    113     (1,12,3)              0.0000000      SURF                                    
    114     (1,12,4)              0.0000000      SURF                                    
    115     (1,12,5)              0.0000000      SURF                                    
    116     (1,12,6)              0.0000000      SURF                                    
    117     (1,12,7)              0.0000000      SURF                                    
    118     (1,12,8)              0.0000000      SURF                                    
    119     (1,12,9)              0.0000000      SURF                                    
    120     (1,12,10)             0.0000000      SURF                                    
    121     (1,13,1)              0.0000000      SURF                                    
    122     (1,13,2)              0.0000000      SURF                                    
    123     (1,13,3)              0.0000000      SURF                                    
    124     (1,13,4)              0.0000000      SURF                                    
    125     (1,13,5)              0.0000000      SURF                                    
    126     (1,13,6)              0.0000000      SURF                                    
    127     (1,13,7)              0.0000000      SURF                                    
    128     (1,13,8)              0.0000000      SURF                                    
    129     (1,13,9)              0.0000000      SURF                                    
    130     (1,13,10)             0.0000000      SURF                                    
    131     (1,14,1)              0.0000000      SURF                                    
    132     (1,14,2)              0.0000000      SURF                                    
    133     (1,14,3)              0.0000000      SURF                                    
    134     (1,14,4)              0.0000000      SURF                                    
    135     (1,14,5)              0.0000000      SURF                                    
    136     (1,14,6)              0.0000000      SURF                                    
    137     (1,14,7)              0.0000000      SURF                                    
    138     (1,14,8)              0.0000000      SURF                                    
    139     (1,14,9)              0.0000000      SURF                                    
    140     (1,14,10)             0.0000000      SURF                                    
    141     (1,15,1)              0.0000000      SURF                                    
    142     (1,15,2)              0.0000000      SURF                                    
    143     (1,15,3)              0.0000000      SURF                                    
    144     (1,15,4)              0.0000000      SURF                                    
    145     (1,15,5)              0.0000000      SURF                                    
    146     (1,15,6)              0.0000000      SURF                                    
    147     (1,15,7)              0.0000000      SURF                                    
    148     (1,15,8)              0.0000000      SURF                                    
    149     (1,15,9)              0.0000000      SURF                                    
    150     (1,15,10)             0.0000000      SURF                                    
 ----------------------------------------------------------------------------------------




 API PACKAGE (MAR) FLOW RATES   PERIOD      2   STEP       38
 -----------------------------------------------
   NUMBER   CELLID                    RATE      
 -----------------------------------------------
     1      (1,6,5)               34.193059     
     2      (1,6,6)               34.193059     
     3      (1,6,7)               34.193059     
     4      (1,10,5)              34.448603     
     5      (1,10,6)              34.448603     
     6      (1,10,7)              34.448603     
 -----------------------------------------------



1
  HEAD IN LAYER   1 AT END OF TIME STEP  38 IN STRESS PERIOD    2
  ---------------------------------------------------------------------------

            1           2           3           4           5           6           7           8           9          10
 ........................................................................................................................
   1   8.6048E-04  1.8105E-03  4.0170E-03  7.5253E-03  1.1173E-02  1.2667E-02  1.1187E-02  7.5822E-03  4.2120E-03  2.4006E-03
   2   2.0050E-03  4.3743E-03  1.0069E-02  1.9542E-02  2.9816E-02  3.3870E-02  2.9847E-02  1.9669E-02  1.0516E-02  5.7669E-03
   3   4.8804E-03  1.1070E-02  2.6587E-02  5.3994E-02  8.5742E-02  9.7233E-02  8.5813E-02  5.4290E-02  2.7654E-02  1.4500E-02
   4   9.7820E-03  2.3175E-02  5.8746E-02  0.1277      0.2183      0.2444      0.2184      0.1283      6.0838E-02  3.0122E-02
   5   1.4397E-02  3.5733E-02  9.7601E-02  0.2395      0.4861      0.5192      0.4863      0.2403      0.1006      4.6036E-02
   6   1.1907E-02  2.9641E-02  8.8780E-02  0.2858      0.9998      0.9045       1.000      0.2864      9.1297E-02  3.8073E-02
   7  -2.2402E-03 -1.5625E-02 -7.3554E-02 -0.2664     -0.7858      -2.035     -0.7857     -0.2663     -7.3599E-02 -1.7975E-02
   8  -1.2317E-02 -4.8139E-02 -0.1952     -0.7173      -2.480      -9.215      -2.480     -0.7176     -0.1972     -5.8163E-02
   9  -4.5139E-03 -1.9422E-02 -7.9584E-02 -0.2731     -0.7897      -2.038     -0.7897     -0.2732     -8.0195E-02 -2.3230E-02
  10   8.3790E-03  2.3782E-02  7.9720E-02  0.2769      0.9999      0.9067       1.000      0.2773      8.1368E-02  2.9965E-02
  11   1.0918E-02  2.9724E-02  8.7422E-02  0.2263      0.4738      0.5070      0.4739      0.2268      8.9583E-02  3.7788E-02
  12   7.2735E-03  1.8684E-02  5.0575E-02  0.1155      0.2036      0.2288      0.2037      0.1159      5.2058E-02  2.4000E-02
  13   3.4743E-03  8.4956E-03  2.1706E-02  4.6205E-02  7.5582E-02  8.6107E-02  7.5624E-02  4.6392E-02  2.2432E-02  1.1006E-02
  14   1.3487E-03  3.1598E-03  7.7179E-03  1.5669E-02  2.4593E-02  2.8089E-02  2.4610E-02  1.5746E-02  8.0063E-03  4.1223E-03
  15   5.4107E-04  1.2180E-03  2.8599E-03  5.5920E-03  8.5266E-03  9.7245E-03  8.5341E-03  5.6243E-03  2.9779E-03  1.5992E-03

 HEAD WILL BE SAVED ON UNIT 1100 AT END OF TIME STEP   38, STRESS PERIOD    2


  VOLUME BUDGET FOR ENTIRE MODEL AT END OF TIME STEP   38, STRESS PERIOD   2
  ---------------------------------------------------------------------------------------------------

     CUMULATIVE VOLUME      L**3       RATES FOR THIS TIME STEP      L**3/T          PACKAGE NAME    
     ------------------                 ------------------------                     ----------------

           IN:                                      IN:
           ---                                      ---
              STO-SS =          19.7928                STO-SS =       1.9553E-02     STORAGE                          
              STO-SY =       50484.8000                STO-SY =          43.2763     STORAGE                          
                 WEL =           0.0000                   WEL =           0.0000     WEL-1                            
                 DRN =           0.0000                   DRN =           0.0000     DRN-0                            
                 API =       76277.0253                   API =         205.9250     MAR                              
                 CHD =       2.0279E-08                   CHD =           0.0000     CHD_0                            

            TOTAL IN =      126781.6181              TOTAL IN =         249.2209

          OUT:                                     OUT:
          ----                                     ----
              STO-SS =          16.1134                STO-SS =       1.6782E-02     STORAGE                          
              STO-SY =       31370.0438                STO-SY =          33.0879     STORAGE                          
                 WEL =       95395.4607                   WEL =         216.1161     WEL-1                            
                 DRN =       1.2217E-04                   DRN =       3.8145E-07     DRN-0                            
                 API =           0.0000                   API =           0.0000     MAR                              
                 CHD =       2.0705E-08                   CHD =           0.0000     CHD_0                            

           TOTAL OUT =      126781.6181             TOTAL OUT =         249.2209

            IN - OUT =      -9.3952E-07              IN - OUT =      -3.0473E-09

 PERCENT DISCREPANCY =          -0.00     PERCENT DISCREPANCY =          -0.00




         TIME SUMMARY AT END OF TIME STEP   38 IN STRESS PERIOD    2
                    SECONDS     MINUTES      HOURS       DAYS        YEARS
                    -----------------------------------------------------------
   TIME STEP LENGTH 8.64000E+05  14400.      240.00      10.000     2.73785E-02
 STRESS PERIOD TIME 3.28320E+07 5.47200E+05  9120.0      380.00      1.0404    
         TOTAL TIME 3.29184E+07 5.48640E+05  9144.0      381.00      1.0431    


end timestep


start timestep kper="2" kstp="39" mode="normal"

 UBDSV1 SAVING           STO-SS ON UNIT   1099 AT TIME STEP     39, STRESS PERIOD      2
 UBDSV1 SAVING           STO-SY ON UNIT   1099 AT TIME STEP     39, STRESS PERIOD      2
 UBDSV1 SAVING     FLOW-JA-FACE ON UNIT   1099 AT TIME STEP     39, STRESS PERIOD      2
 UBDSV06 SAVING       DATA-SPDIS IN MODEL GWF              PACKAGE NPF             CONNECTED TO MODEL GWF              PACKAGE NPF              ON UNIT   1099 AT TIME STEP     39, STRESS PERIOD      2
 UBDSV06 SAVING              WEL IN MODEL GWF              PACKAGE GWF             CONNECTED TO MODEL GWF              PACKAGE WEL-1            ON UNIT   1099 AT TIME STEP     39, STRESS PERIOD      2
 UBDSV06 SAVING              DRN IN MODEL GWF              PACKAGE GWF             CONNECTED TO MODEL GWF              PACKAGE DRN-0            ON UNIT   1099 AT TIME STEP     39, STRESS PERIOD      2
 UBDSV06 SAVING              API IN MODEL GWF              PACKAGE GWF             CONNECTED TO MODEL GWF              PACKAGE MAR              ON UNIT   1099 AT TIME STEP     39, STRESS PERIOD      2
 UBDSV06 SAVING              CHD IN MODEL GWF              PACKAGE GWF             CONNECTED TO MODEL GWF              PACKAGE CHD_0            ON UNIT   1099 AT TIME STEP     39, STRESS PERIOD      2

    CALCULATED INTERCELL FLOW FOR PERIOD 2 STEP 39
(1,1,1): (1,1,2) 1.040791E-02 (1,2,1) 1.249243E-02
(1,1,2): (1,1,1) -1.040791E-02 (1,1,3) 2.391021E-02 (1,2,2) 2.751032E-02
(1,1,3): (1,1,2) -2.391021E-02 (1,1,4) 3.758279E-02 (1,2,3) 6.406415E-02
(1,1,4): (1,1,3) -3.758279E-02 (1,1,5) 3.873581E-02 (1,2,4) 0.125981
(1,1,5): (1,1,4) -3.873581E-02 (1,1,6) 1.585419E-02 (1,2,5) 0.194369
(1,1,6): (1,1,5) -1.585419E-02 (1,1,7) -1.568586E-02 (1,2,6) 0.220800
(1,1,7): (1,1,6) 1.568586E-02 (1,1,8) -3.824162E-02 (1,2,7) 0.194563
(1,1,8): (1,1,7) 3.824162E-02 (1,1,9) -3.601250E-02 (1,2,8) 0.126770
(1,1,9): (1,1,8) 3.601250E-02 (1,1,10) -1.950390E-02 (1,2,9) 6.684359E-02
(1,1,10): (1,1,9) 1.950390E-02 (1,2,10) 3.621659E-02
(1,2,1): (1,1,1) -1.249243E-02 (1,2,2) 2.542548E-02 (1,3,1) 3.087168E-02
(1,2,2): (1,1,2) -2.751032E-02 (1,2,1) -2.542548E-02 (1,2,3) 6.046272E-02 (1,3,2) 7.069084E-02
(1,2,3): (1,1,3) -6.406415E-02 (1,2,2) -6.046272E-02 (1,2,4) 9.948311E-02 (1,3,3) 0.172254
(1,2,4): (1,1,4) -0.125981 (1,2,3) -9.948311E-02 (1,2,5) 0.107065 (1,3,4) 0.356693
(1,2,5): (1,1,5) -0.194369 (1,2,4) -0.107065 (1,2,6) 4.223860E-02 (1,3,5) 0.577355
(1,2,6): (1,1,6) -0.220800 (1,2,5) -4.223860E-02 (1,2,7) -4.187664E-02 (1,3,6) 0.654081
(1,2,7): (1,1,7) -0.194563 (1,2,6) 4.187664E-02 (1,2,8) -0.105975 (1,3,7) 0.577813
(1,2,8): (1,1,8) -0.126770 (1,2,7) 0.105975 (1,2,9) -9.592044E-02 (1,3,8) 0.358576
(1,2,9): (1,1,9) -6.684359E-02 (1,2,8) 9.592044E-02 (1,2,10) -5.012579E-02 (1,3,9) 0.179015
(1,2,10): (1,1,10) -3.621659E-02 (1,2,9) 5.012579E-02 (1,3,10) 9.246487E-02
(1,3,1): (1,2,1) -3.087168E-02 (1,3,2) 6.524249E-02 (1,4,1) 5.148071E-02
(1,3,2): (1,2,2) -7.069084E-02 (1,3,1) -6.524249E-02 (1,3,3) 0.162016 (1,4,2) 0.125182
(1,3,3): (1,2,3) -0.172254 (1,3,2) -0.162016 (1,3,4) 0.283789 (1,4,3) 0.329691
(1,3,4): (1,2,4) -0.356693 (1,3,3) -0.283789 (1,3,5) 0.327187 (1,4,4) 0.755174
(1,3,5): (1,2,5) -0.577355 (1,3,4) -0.327187 (1,3,6) 0.118566 (1,4,5) 1.36468
(1,3,6): (1,2,6) -0.654081 (1,3,5) -0.118566 (1,3,7) -0.117748 (1,4,6) 1.51861
(1,3,7): (1,2,7) -0.577813 (1,3,6) 0.117748 (1,3,8) -0.324670 (1,4,7) 1.36540
(1,3,8): (1,2,8) -0.358576 (1,3,7) 0.324670 (1,3,9) -0.275334 (1,4,8) 0.758169
(1,3,9): (1,2,9) -0.179015 (1,3,8) 0.275334 (1,3,10) -0.136639 (1,4,9) 0.340694
(1,3,10): (1,2,10) -9.246487E-02 (1,3,9) 0.136639 (1,4,10) 0.162049
(1,4,1): (1,3,1) -5.148071E-02 (1,4,2) 0.138954 (1,5,1) 4.661632E-02
(1,4,2): (1,3,2) -0.125182 (1,4,1) -0.138954 (1,4,3) 0.366599 (1,5,2) 0.125437
(1,4,3): (1,3,3) -0.329691 (1,4,2) -0.366599 (1,4,4) 0.709082 (1,5,3) 0.388660
(1,4,4): (1,3,4) -0.755174 (1,4,3) -0.709082 (1,4,5) 0.934207 (1,5,4) 1.13618
(1,4,5): (1,3,5) -1.36468 (1,4,4) -0.934207 (1,4,6) 0.270715 (1,5,5) 2.79930
(1,4,6): (1,3,6) -1.51861 (1,4,5) -0.270715 (1,4,7) -0.269177 (1,5,6) 2.87918
(1,4,7): (1,3,7) -1.36540 (1,4,6) 0.269177 (1,4,8) -0.929399 (1,5,7) 2.79994
(1,4,8): (1,3,8) -0.758169 (1,4,7) 0.929399 (1,4,9) -0.692544 (1,5,8) 1.13874
(1,4,9): (1,3,9) -0.340694 (1,4,8) 0.692544 (1,4,10) -0.315239 (1,5,9) 0.398242
(1,4,10): (1,3,10) -0.162049 (1,4,9) 0.315239 (1,5,10) 0.159356
(1,5,1): (1,4,1) -4.661632E-02 (1,5,2) 0.217847 (1,6,1) -2.926152E-02
(1,5,2): (1,4,2) -0.125437 (1,5,1) -0.217847 (1,5,3) 0.630444 (1,6,2) -7.128579E-02
(1,5,3): (1,4,3) -0.388660 (1,5,2) -0.630444 (1,5,4) 1.45889 (1,6,3) -0.112511
(1,5,4): (1,4,4) -1.13618 (1,5,3) -1.45889 (1,5,5) 2.59427 (1,6,4) 0.436172
(1,5,5): (1,4,5) -2.79930 (1,5,4) -2.59427 (1,5,6) 0.348980 (1,6,5) 5.61883
(1,5,6): (1,4,6) -2.87918 (1,5,5) -0.348980 (1,5,7) -0.346813 (1,6,6) 4.17228
(1,5,7): (1,4,7) -2.79994 (1,5,6) 0.346813 (1,5,8) -2.58744 (1,6,7) 5.61857
(1,5,8): (1,4,8) -1.13874 (1,5,7) 2.58744 (1,5,9) -1.43512 (1,6,8) 0.434748
(1,5,9): (1,4,9) -0.398242 (1,5,8) 1.43512 (1,5,10) -0.554489 (1,6,9) -0.118463
(1,5,10): (1,4,10) -0.159356 (1,5,9) 0.554489 (1,6,10) -9.327902E-02
(1,6,1): (1,5,1) 2.926152E-02 (1,6,2) 0.175761 (1,7,1) -0.149460
(1,6,2): (1,5,2) 7.128579E-02 (1,6,1) -0.175761 (1,6,3) 0.589012 (1,7,2) -0.470951
(1,6,3): (1,5,3) 0.112511 (1,6,2) -0.589012 (1,6,4) 2.01567 (1,7,3) -1.67611
(1,6,4): (1,5,4) -0.436172 (1,6,3) -2.01567 (1,6,5) 7.87292 (1,7,4) -5.75279
(1,6,5): (1,5,5) -5.61883 (1,6,4) -7.87292 (1,6,6) -1.04538 (1,7,5) -19.7659
(1,6,6): (1,5,6) -4.17228 (1,6,5) 1.04538 (1,6,7) 1.04731 (1,7,6) -32.1634
(1,6,7): (1,5,7) -5.61857 (1,6,6) -1.04731 (1,6,8) -7.86703 (1,7,7) -19.7675
(1,6,8): (1,5,8) -0.434748 (1,6,7) 7.86703 (1,6,9) -1.99639 (1,7,8) -5.75939
(1,6,9): (1,5,9) 0.118463 (1,6,8) 1.99639 (1,6,10) -0.529200 (1,7,9) -1.70412
(1,6,10): (1,5,10) 9.327902E-02 (1,6,9) 0.529200 (1,7,10) -0.584990
(1,7,1): (1,6,1) 0.149460 (1,7,2) -0.144997 (1,8,1) -0.105024
(1,7,2): (1,6,2) 0.470951 (1,7,1) 0.144997 (1,7,3) -0.606997 (1,8,2) -0.333323
(1,7,3): (1,6,3) 1.67611 (1,7,2) 0.606997 (1,7,4) -1.95701 (1,8,3) -1.22604
(1,7,4): (1,6,4) 5.75279 (1,7,3) 1.95701 (1,7,5) -5.07445 (1,8,4) -4.41620
(1,7,5): (1,6,5) 19.7659 (1,7,4) 5.07445 (1,7,6) -11.4814 (1,8,5) -15.6238
(1,7,6): (1,6,6) 32.1634 (1,7,5) 11.4814 (1,7,7) 11.4820 (1,8,6) -57.0635
(1,7,7): (1,6,7) 19.7675 (1,7,6) -11.4820 (1,7,8) 5.07509 (1,8,7) -15.6248
(1,7,8): (1,6,8) 5.75939 (1,7,7) -5.07509 (1,7,9) 1.95459 (1,8,8) -4.42085
(1,7,9): (1,6,9) 1.70412 (1,7,8) -1.95459 (1,7,10) 0.580434 (1,8,9) -1.24563
(1,7,10): (1,6,10) 0.584990 (1,7,9) -0.580434 (1,8,10) -0.412705
(1,8,1): (1,7,1) 0.105024 (1,8,2) -0.373388 (1,9,1) 8.205756E-02
(1,8,2): (1,7,2) 0.333323 (1,8,1) 0.373388 (1,8,3) -1.50218 (1,9,2) 0.295836
(1,8,3): (1,7,3) 1.22604 (1,8,2) 1.50218 (1,8,4) -5.17153 (1,9,3) 1.16765
(1,8,4): (1,7,4) 4.41620 (1,8,3) 5.17153 (1,8,5) -16.3662 (1,9,4) 4.35140
(1,8,5): (1,7,5) 15.6238 (1,8,4) 16.3662 (1,8,6) -50.4566 (1,9,5) 15.5848
(1,8,6): (1,7,6) 57.0635 (1,8,5) 50.4566 (1,8,7) 50.4559 (1,9,6) 57.0271
(1,8,7): (1,7,7) 15.6248 (1,8,6) -50.4559 (1,8,8) 16.3627 (1,9,7) 15.5852
(1,8,8): (1,7,8) 4.42085 (1,8,7) -16.3627 (1,8,9) 5.15332 (1,9,8) 4.35408
(1,8,9): (1,7,9) 1.24563 (1,8,8) -5.15332 (1,8,10) 1.41478 (1,9,9) 1.18143
(1,8,10): (1,7,10) 0.412705 (1,8,9) -1.41478 (1,9,10) 0.360643
(1,9,1): (1,8,1) -8.205756E-02 (1,9,2) -0.159443 (1,10,1) 0.136595
(1,9,2): (1,8,2) -0.295836 (1,9,1) 0.159443 (1,9,3) -0.627440 (1,10,2) 0.450013
(1,9,3): (1,8,3) -1.16765 (1,9,2) 0.627440 (1,9,4) -1.96136 (1,10,3) 1.64456
(1,9,4): (1,8,4) -4.35140 (1,9,3) 1.96136 (1,9,5) -5.04400 (1,10,4) 5.72647
(1,9,5): (1,8,5) -15.5848 (1,9,4) 5.04400 (1,9,6) -11.4661 (1,10,5) 19.8063
(1,9,6): (1,8,6) -57.0271 (1,9,5) 11.4661 (1,9,7) 11.4662 (1,10,6) 32.2199
(1,9,7): (1,8,7) -15.5852 (1,9,6) -11.4662 (1,9,8) 5.04319 (1,10,7) 19.8074
(1,9,8): (1,8,8) -4.35408 (1,9,7) -5.04319 (1,9,9) 1.95502 (1,10,8) 5.73189
(1,9,9): (1,8,9) -1.18143 (1,9,8) -1.95502 (1,9,10) 0.592060 (1,10,9) 1.66925
(1,9,10): (1,8,10) -0.360643 (1,9,9) -0.592060 (1,10,10) 0.555824
(1,10,1): (1,9,1) -0.136595 (1,10,2) 0.153304 (1,11,1) 2.944546E-02
(1,10,2): (1,9,2) -0.450013 (1,10,1) -0.153304 (1,10,3) 0.558315 (1,11,2) 6.924499E-02
(1,10,3): (1,9,3) -1.64456 (1,10,2) -0.558315 (1,10,4) 2.01740 (1,11,3) 0.100576
(1,10,4): (1,9,4) -5.72647 (1,10,3) -2.01740 (1,10,5) 7.96701 (1,11,4) -0.479781
(1,10,5): (1,9,5) -19.8063 (1,10,4) -7.96701 (1,10,6) -1.02225 (1,11,5) -5.74964
(1,10,6): (1,9,6) -32.2199 (1,10,5) 1.02225 (1,10,7) 1.02331 (1,11,6) -4.32365
(1,10,7): (1,9,7) -19.8074 (1,10,6) -1.02331 (1,10,8) -7.96341 (1,11,7) -5.74935
(1,10,8): (1,9,8) -5.73189 (1,10,7) 7.96341 (1,10,9) -2.00423 (1,11,8) -0.478314
(1,10,9): (1,9,9) -1.66925 (1,10,8) 2.00423 (1,10,10) -0.512244 (1,11,9) 0.106630
(1,10,10): (1,9,10) -0.555824 (1,10,9) 0.512244 (1,11,10) 9.111057E-02
(1,11,1): (1,10,1) -2.944546E-02 (1,11,2) 0.193153 (1,12,1) -3.701633E-02
(1,11,2): (1,10,2) -6.924499E-02 (1,11,1) -0.193153 (1,11,3) 0.589795 (1,12,2) -0.110786
(1,11,3): (1,10,3) -0.100576 (1,11,2) -0.589795 (1,11,4) 1.42867 (1,12,3) -0.369613
(1,11,4): (1,10,4) 0.479781 (1,11,3) -1.42867 (1,11,5) 2.60120 (1,12,4) -1.12667
(1,11,5): (1,10,5) 5.74964 (1,11,4) -2.60120 (1,11,6) 0.350572 (1,12,5) -2.82179
(1,11,6): (1,10,6) 4.32365 (1,11,5) -0.350572 (1,11,7) -0.349241 (1,12,6) -2.91335
(1,11,7): (1,10,7) 5.74935 (1,11,6) 0.349241 (1,11,8) -2.59655 (1,12,7) -2.82218
(1,11,8): (1,10,8) 0.478314 (1,11,7) 2.59655 (1,11,9) -1.41092 (1,12,8) -1.12838
(1,11,9): (1,10,9) -0.106630 (1,11,8) 1.41092 (1,11,10) -0.527826 (1,12,9) -0.376721
(1,11,10): (1,10,10) -9.111057E-02 (1,11,9) 0.527826 (1,12,10) -0.138704
(1,12,1): (1,11,1) 3.701633E-02 (1,12,2) 0.119323 (1,13,1) -4.029153E-02
(1,12,2): (1,11,2) 0.110786 (1,12,1) -0.119323 (1,12,3) 0.330409 (1,13,2) -0.106139
(1,12,3): (1,11,3) 0.369613 (1,12,2) -0.330409 (1,12,4) 0.669439 (1,13,3) -0.297484
(1,12,4): (1,11,4) 1.12667 (1,12,3) -0.669439 (1,12,5) 0.909434 (1,13,4) -0.712061
(1,12,5): (1,11,5) 2.82179 (1,12,4) -0.909434 (1,12,6) 0.260929 (1,13,5) -1.32004
(1,12,6): (1,11,6) 2.91335 (1,12,5) -0.260929 (1,12,7) -0.259979 (1,13,6) -1.47361
(1,12,7): (1,11,7) 2.82218 (1,12,6) 0.259979 (1,12,8) -0.906172 (1,13,7) -1.32050
(1,12,8): (1,11,8) 1.12838 (1,12,7) 0.906172 (1,12,9) -0.657247 (1,13,8) -0.714117
(1,12,9): (1,11,9) 0.376721 (1,12,8) 0.657247 (1,12,10) -0.289456 (1,13,9) -0.305680
(1,12,10): (1,11,10) 0.138704 (1,12,9) 0.289456 (1,13,10) -0.135816
(1,13,1): (1,12,1) 4.029153E-02 (1,13,2) 5.346679E-02 (1,14,1) -2.310509E-02
(1,13,2): (1,12,2) 0.106139 (1,13,1) -5.346679E-02 (1,13,3) 0.139002 (1,14,2) -5.689668E-02
(1,13,3): (1,12,3) 0.297484 (1,13,2) -0.139002 (1,13,4) 0.255033 (1,14,3) -0.147019
(1,13,4): (1,12,4) 0.712061 (1,13,3) -0.255033 (1,13,5) 0.303824 (1,14,4) -0.317983
(1,13,5): (1,12,5) 1.32004 (1,13,4) -0.303824 (1,13,6) 0.109106 (1,14,5) -0.528682
(1,13,6): (1,12,6) 1.47361 (1,13,5) -0.109106 (1,13,7) -0.108614 (1,14,6) -0.601439
(1,13,7): (1,12,7) 1.32050 (1,13,6) 0.108614 (1,13,8) -0.302171 (1,14,7) -0.528966
(1,13,8): (1,12,8) 0.714117 (1,13,7) 0.302171 (1,13,9) -0.249034 (1,14,8) -0.319237
(1,13,9): (1,12,9) 0.305680 (1,13,8) 0.249034 (1,13,10) -0.119620 (1,14,9) -0.151862
(1,13,10): (1,12,10) 0.135816 (1,13,9) 0.119620 (1,14,10) -7.363184E-02
(1,14,1): (1,13,1) 2.310509E-02 (1,14,2) 1.967636E-02 (1,15,1) -8.945371E-03
(1,14,2): (1,13,2) 5.689668E-02 (1,14,1) -1.967636E-02 (1,14,3) 4.888647E-02 (1,15,2) -2.109586E-02
(1,14,3): (1,13,3) 0.147019 (1,14,2) -4.888647E-02 (1,14,4) 8.417603E-02 (1,15,3) -5.196309E-02
(1,14,4): (1,13,4) 0.317983 (1,14,3) -8.417603E-02 (1,14,5) 9.358920E-02 (1,15,4) -0.106567
(1,14,5): (1,13,5) 0.528682 (1,14,4) -9.358920E-02 (1,14,6) 3.669711E-02 (1,15,5) -0.168745
(1,14,6): (1,13,6) 0.601439 (1,14,5) -3.669711E-02 (1,14,7) -3.648891E-02 (1,15,6) -0.192640
(1,14,7): (1,13,7) 0.528966 (1,14,6) 3.648891E-02 (1,14,8) -9.290773E-02 (1,15,7) -0.168861
(1,14,8): (1,13,8) 0.319237 (1,14,7) 9.290773E-02 (1,14,9) -8.177616E-02 (1,15,8) -0.107073
(1,14,9): (1,13,9) 0.151862 (1,14,8) 8.177616E-02 (1,14,10) -4.141416E-02 (1,15,9) -5.387478E-02
(1,14,10): (1,13,10) 7.363184E-02 (1,14,9) 4.141416E-02 (1,15,10) -2.749428E-02
(1,15,1): (1,14,1) 8.945371E-03 (1,15,2) 7.526045E-03
(1,15,2): (1,14,2) 2.109586E-02 (1,15,1) -7.526045E-03 (1,15,3) 1.802019E-02
(1,15,3): (1,14,3) 5.196309E-02 (1,15,2) -1.802019E-02 (1,15,4) 2.958451E-02
(1,15,4): (1,14,4) 0.106567 (1,15,3) -2.958451E-02 (1,15,5) 3.145763E-02
(1,15,5): (1,14,5) 0.168745 (1,15,4) -3.145763E-02 (1,15,6) 1.283924E-02
(1,15,6): (1,14,6) 0.192640 (1,15,5) -1.283924E-02 (1,15,7) -1.274760E-02
(1,15,7): (1,14,7) 0.168861 (1,15,6) 1.274760E-02 (1,15,8) -3.116635E-02
(1,15,8): (1,14,8) 0.107073 (1,15,7) 3.116635E-02 (1,15,9) -2.859086E-02
(1,15,9): (1,14,9) 5.387478E-02 (1,15,8) 2.859086E-02 (1,15,10) -1.503695E-02
(1,15,10): (1,14,10) 2.749428E-02 (1,15,9) 1.503695E-02

 WEL PACKAGE (WEL-1) FLOW RATES   PERIOD      2   STEP       39
 ----------------------------------------------------------------------------------------
   NUMBER   CELLID                    RATE       NAME                                    
 ----------------------------------------------------------------------------------------
     1      (1,8,6)              -215.44674      WEL                                     
 ----------------------------------------------------------------------------------------




 DRN PACKAGE (DRN-0) FLOW RATES   PERIOD      2   STEP       39
 ----------------------------------------------------------------------------------------
   NUMBER   CELLID                    RATE       NAME                                    
 ----------------------------------------------------------------------------------------
     1      (1,1,1)               0.0000000      SURF                                    
     2      (1,1,2)               0.0000000      SURF                                    
     3      (1,1,3)               0.0000000      SURF                                    
     4      (1,1,4)               0.0000000      SURF                                    
     5      (1,1,5)               0.0000000      SURF                                    
     6      (1,1,6)               0.0000000      SURF                                    
     7      (1,1,7)               0.0000000      SURF                                    
     8      (1,1,8)               0.0000000      SURF                                    
     9      (1,1,9)               0.0000000      SURF                                    
     10     (1,1,10)              0.0000000      SURF                                    
     11     (1,2,1)               0.0000000      SURF                                    
     12     (1,2,2)               0.0000000      SURF                                    
     13     (1,2,3)               0.0000000      SURF                                    
     14     (1,2,4)               0.0000000      SURF                                    
     15     (1,2,5)               0.0000000      SURF                                    
     16     (1,2,6)               0.0000000      SURF                                    
     17     (1,2,7)               0.0000000      SURF                                    
     18     (1,2,8)               0.0000000      SURF                                    
     19     (1,2,9)               0.0000000      SURF                                    
     20     (1,2,10)              0.0000000      SURF                                    
     21     (1,3,1)               0.0000000      SURF                                    
     22     (1,3,2)               0.0000000      SURF                                    
     23     (1,3,3)               0.0000000      SURF                                    
     24     (1,3,4)               0.0000000      SURF                                    
     25     (1,3,5)               0.0000000      SURF                                    
     26     (1,3,6)               0.0000000      SURF                                    
     27     (1,3,7)               0.0000000      SURF                                    
     28     (1,3,8)               0.0000000      SURF                                    
     29     (1,3,9)               0.0000000      SURF                                    
     30     (1,3,10)              0.0000000      SURF                                    
     31     (1,4,1)               0.0000000      SURF                                    
     32     (1,4,2)               0.0000000      SURF                                    
     33     (1,4,3)               0.0000000      SURF                                    
     34     (1,4,4)               0.0000000      SURF                                    
     35     (1,4,5)               0.0000000      SURF                                    
     36     (1,4,6)               0.0000000      SURF                                    
     37     (1,4,7)               0.0000000      SURF                                    
     38     (1,4,8)               0.0000000      SURF                                    
     39     (1,4,9)               0.0000000      SURF                                    
     40     (1,4,10)              0.0000000      SURF                                    
     41     (1,5,1)               0.0000000      SURF                                    
     42     (1,5,2)               0.0000000      SURF                                    
     43     (1,5,3)               0.0000000      SURF                                    
     44     (1,5,4)               0.0000000      SURF                                    
     45     (1,5,5)               0.0000000      SURF                                    
     46     (1,5,6)               0.0000000      SURF                                    
     47     (1,5,7)               0.0000000      SURF                                    
     48     (1,5,8)               0.0000000      SURF                                    
     49     (1,5,9)               0.0000000      SURF                                    
     50     (1,5,10)              0.0000000      SURF                                    
     51     (1,6,1)               0.0000000      SURF                                    
     52     (1,6,2)               0.0000000      SURF                                    
     53     (1,6,3)               0.0000000      SURF                                    
     54     (1,6,4)               0.0000000      SURF                                    
     55     (1,6,5)               0.0000000      SURF                                    
     56     (1,6,6)               0.0000000      SURF                                    
     57     (1,6,7)              -8.86211637E-09 SURF                                    
     58     (1,6,8)               0.0000000      SURF                                    
     59     (1,6,9)               0.0000000      SURF                                    
     60     (1,6,10)              0.0000000      SURF                                    
     61     (1,7,1)               0.0000000      SURF                                    
     62     (1,7,2)               0.0000000      SURF                                    
     63     (1,7,3)               0.0000000      SURF                                    
     64     (1,7,4)               0.0000000      SURF                                    
     65     (1,7,5)               0.0000000      SURF                                    
     66     (1,7,6)               0.0000000      SURF                                    
     67     (1,7,7)               0.0000000      SURF                                    
     68     (1,7,8)               0.0000000      SURF                                    
     69     (1,7,9)               0.0000000      SURF                                    
     70     (1,7,10)              0.0000000      SURF                                    
     71     (1,8,1)               0.0000000      SURF                                    
     72     (1,8,2)               0.0000000      SURF                                    
     73     (1,8,3)               0.0000000      SURF                                    
     74     (1,8,4)               0.0000000      SURF                                    
     75     (1,8,5)               0.0000000      SURF                                    
     76     (1,8,6)               0.0000000      SURF                                    
     77     (1,8,7)               0.0000000      SURF                                    
     78     (1,8,8)               0.0000000      SURF                                    
     79     (1,8,9)               0.0000000      SURF                                    
     80     (1,8,10)              0.0000000      SURF                                    
     81     (1,9,1)               0.0000000      SURF                                    
     82     (1,9,2)               0.0000000      SURF                                    
     83     (1,9,3)               0.0000000      SURF                                    
     84     (1,9,4)               0.0000000      SURF                                    
     85     (1,9,5)               0.0000000      SURF                                    
     86     (1,9,6)               0.0000000      SURF                                    
     87     (1,9,7)               0.0000000      SURF                                    
     88     (1,9,8)               0.0000000      SURF                                    
     89     (1,9,9)               0.0000000      SURF                                    
     90     (1,9,10)              0.0000000      SURF                                    
     91     (1,10,1)              0.0000000      SURF                                    
     92     (1,10,2)              0.0000000      SURF                                    
     93     (1,10,3)              0.0000000      SURF                                    
     94     (1,10,4)              0.0000000      SURF                                    
     95     (1,10,5)              0.0000000      SURF                                    
     96     (1,10,6)              0.0000000      SURF                                    
     97     (1,10,7)             -3.68367182E-07 SURF                                    
     98     (1,10,8)              0.0000000      SURF                                    
     99     (1,10,9)              0.0000000      SURF                                    
    100     (1,10,10)             0.0000000      SURF                                    
    101     (1,11,1)              0.0000000      SURF                                    
    102     (1,11,2)              0.0000000      SURF                                    
    103     (1,11,3)              0.0000000      SURF                                    
    104     (1,11,4)              0.0000000      SURF                                    
    105     (1,11,5)              0.0000000      SURF                                    
    106     (1,11,6)              0.0000000      SURF                                    
    107     (1,11,7)              0.0000000      SURF                                    
    108     (1,11,8)              0.0000000      SURF                                    
    109     (1,11,9)              0.0000000      SURF                                    
    110     (1,11,10)             0.0000000      SURF                                    
    111     (1,12,1)              0.0000000      SURF                                    
    112     (1,12,2)              0.0000000      SURF                                    
    113     (1,12,3)              0.0000000      SURF                                    
    114     (1,12,4)              0.0000000      SURF                                    
    115     (1,12,5)              0.0000000      SURF                                    
    116     (1,12,6)              0.0000000      SURF                                    
    117     (1,12,7)              0.0000000      SURF                                    
    118     (1,12,8)              0.0000000      SURF                                    
    119     (1,12,9)              0.0000000      SURF                                    
    120     (1,12,10)             0.0000000      SURF                                    
    121     (1,13,1)              0.0000000      SURF                                    
    122     (1,13,2)              0.0000000      SURF                                    
    123     (1,13,3)              0.0000000      SURF                                    
    124     (1,13,4)              0.0000000      SURF                                    
    125     (1,13,5)              0.0000000      SURF                                    
    126     (1,13,6)              0.0000000      SURF                                    
    127     (1,13,7)              0.0000000      SURF                                    
    128     (1,13,8)              0.0000000      SURF                                    
    129     (1,13,9)              0.0000000      SURF                                    
    130     (1,13,10)             0.0000000      SURF                                    
    131     (1,14,1)              0.0000000      SURF                                    
    132     (1,14,2)              0.0000000      SURF                                    
    133     (1,14,3)              0.0000000      SURF                                    
    134     (1,14,4)              0.0000000      SURF                                    
    135     (1,14,5)              0.0000000      SURF                                    
    136     (1,14,6)              0.0000000      SURF                                    
    137     (1,14,7)              0.0000000      SURF                                    
    138     (1,14,8)              0.0000000      SURF                                    
    139     (1,14,9)              0.0000000      SURF                                    
    140     (1,14,10)             0.0000000      SURF                                    
    141     (1,15,1)              0.0000000      SURF                                    
    142     (1,15,2)              0.0000000      SURF                                    
    143     (1,15,3)              0.0000000      SURF                                    
    144     (1,15,4)              0.0000000      SURF                                    
    145     (1,15,5)              0.0000000      SURF                                    
    146     (1,15,6)              0.0000000      SURF                                    
    147     (1,15,7)              0.0000000      SURF                                    
    148     (1,15,8)              0.0000000      SURF                                    
    149     (1,15,9)              0.0000000      SURF                                    
    150     (1,15,10)             0.0000000      SURF                                    
 ----------------------------------------------------------------------------------------




 API PACKAGE (MAR) FLOW RATES   PERIOD      2   STEP       39
 -----------------------------------------------
   NUMBER   CELLID                    RATE      
 -----------------------------------------------
     1      (1,6,5)               34.300389     
     2      (1,6,6)               34.300389     
     3      (1,6,7)               34.300389     
     4      (1,10,5)              34.543513     
     5      (1,10,6)              34.543513     
     6      (1,10,7)              34.543513     
 -----------------------------------------------



1
  HEAD IN LAYER   1 AT END OF TIME STEP  39 IN STRESS PERIOD    2
  ---------------------------------------------------------------------------

            1           2           3           4           5           6           7           8           9          10
 ........................................................................................................................
   1   9.7493E-04  2.0155E-03  4.4055E-03  8.1607E-03  1.2030E-02  1.3613E-02  1.2046E-02  8.2269E-03  4.6286E-03  2.6791E-03
   2   2.2239E-03  4.7652E-03  1.0805E-02  2.0733E-02  3.1406E-02  3.5615E-02  3.1442E-02  2.0877E-02  1.1305E-02  6.2985E-03
   3   5.3094E-03  1.1826E-02  2.7982E-02  5.6203E-02  8.8634E-02  0.1004      8.8715E-02  5.6533E-02  2.9155E-02  1.5531E-02
   4   1.0452E-02  2.4314E-02  6.0752E-02  0.1307      0.2221      0.2486      0.2223      0.1314      6.3011E-02  3.1684E-02
   5   1.5107E-02  3.6811E-02  9.9236E-02  0.2417      0.4890      0.5222      0.4892      0.2425      0.1024      4.7545E-02
   6   1.2185E-02  2.9709E-02  8.8096E-02  0.2841      0.9998      0.9048       1.000      0.2848      9.0705E-02  3.8261E-02
   7  -2.7428E-03 -1.7247E-02 -7.8051E-02 -0.2753     -0.7971      -2.045     -0.7970     -0.2752     -7.8175E-02 -2.0015E-02
   8  -1.3248E-02 -5.0636E-02 -0.2016     -0.7294      -2.495      -9.218      -2.495     -0.7298     -0.2037     -6.1368E-02
   9  -5.0382E-03 -2.0991E-02 -8.3866E-02 -0.2817     -0.8007      -2.047     -0.8007     -0.2817     -8.4569E-02 -2.5213E-02
  10   8.6096E-03  2.3903E-02  7.9296E-02  0.2756      0.9999      0.9070       1.000      0.2761      8.1015E-02  3.0202E-02
  11   1.1551E-02  3.0807E-02  8.9264E-02  0.2289      0.4772      0.5106      0.4773      0.2295      9.1581E-02  3.9278E-02
  12   7.8534E-03  1.9762E-02  5.2630E-02  0.1188      0.2079      0.2334      0.2080      0.1192      5.4251E-02  2.5461E-02
  13   3.8274E-03  9.1692E-03  2.3037E-02  4.8418E-02  7.8563E-02  8.9377E-02  7.8612E-02  4.8631E-02  2.3848E-02  1.1914E-02
  14   1.5178E-03  3.4847E-03  8.3693E-03  1.6773E-02  2.6107E-02  2.9766E-02  2.6128E-02  1.6862E-02  8.6977E-03  4.5599E-03
  15   6.2338E-04  1.3759E-03  3.1773E-03  6.1340E-03  9.2768E-03  1.0559E-02  9.2860E-03  6.1722E-03  3.3149E-03  1.8117E-03

 HEAD WILL BE SAVED ON UNIT 1100 AT END OF TIME STEP   39, STRESS PERIOD    2


  VOLUME BUDGET FOR ENTIRE MODEL AT END OF TIME STEP   39, STRESS PERIOD   2
  ---------------------------------------------------------------------------------------------------

     CUMULATIVE VOLUME      L**3       RATES FOR THIS TIME STEP      L**3/T          PACKAGE NAME    
     ------------------                 ------------------------                     ----------------

           IN:                                      IN:
           ---                                      ---
              STO-SS =          19.9805                STO-SS =       1.8770E-02     STORAGE                          
              STO-SY =       50899.4329                STO-SY =          41.4633     STORAGE                          
                 WEL =           0.0000                   WEL =           0.0000     WEL-1                            
                 DRN =           0.0000                   DRN =           0.0000     DRN-0                            
                 API =       78342.3424                   API =         206.5317     MAR                              
                 CHD =       2.0279E-08                   CHD =           0.0000     CHD_0                            

            TOTAL IN =      129261.7558              TOTAL IN =         248.0138

          OUT:                                     OUT:
          ----                                     ----
              STO-SS =          16.2785                STO-SS =       1.6510E-02     STORAGE                          
              STO-SY =       31695.5489                STO-SY =          32.5505     STORAGE                          
                 WEL =       97549.9282                   WEL =         215.4467     WEL-1                            
                 DRN =       1.2594E-04                   DRN =       3.7723E-07     DRN-0                            
                 API =           0.0000                   API =           0.0000     MAR                              
                 CHD =       2.0705E-08                   CHD =           0.0000     CHD_0                            

           TOTAL OUT =      129261.7558             TOTAL OUT =         248.0138

            IN - OUT =      -9.6970E-07              IN - OUT =      -3.0180E-09

 PERCENT DISCREPANCY =          -0.00     PERCENT DISCREPANCY =          -0.00




         TIME SUMMARY AT END OF TIME STEP   39 IN STRESS PERIOD    2
                    SECONDS     MINUTES      HOURS       DAYS        YEARS
                    -----------------------------------------------------------
   TIME STEP LENGTH 8.64000E+05  14400.      240.00      10.000     2.73785E-02
 STRESS PERIOD TIME 3.36960E+07 5.61600E+05  9360.0      390.00      1.0678    
         TOTAL TIME 3.37824E+07 5.63040E+05  9384.0      391.00      1.0705    


end timestep


start timestep kper="2" kstp="40" mode="normal"

 UBDSV1 SAVING           STO-SS ON UNIT   1099 AT TIME STEP     40, STRESS PERIOD      2
 UBDSV1 SAVING           STO-SY ON UNIT   1099 AT TIME STEP     40, STRESS PERIOD      2
 UBDSV1 SAVING     FLOW-JA-FACE ON UNIT   1099 AT TIME STEP     40, STRESS PERIOD      2
 UBDSV06 SAVING       DATA-SPDIS IN MODEL GWF              PACKAGE NPF             CONNECTED TO MODEL GWF              PACKAGE NPF              ON UNIT   1099 AT TIME STEP     40, STRESS PERIOD      2
 UBDSV06 SAVING              WEL IN MODEL GWF              PACKAGE GWF             CONNECTED TO MODEL GWF              PACKAGE WEL-1            ON UNIT   1099 AT TIME STEP     40, STRESS PERIOD      2
 UBDSV06 SAVING              DRN IN MODEL GWF              PACKAGE GWF             CONNECTED TO MODEL GWF              PACKAGE DRN-0            ON UNIT   1099 AT TIME STEP     40, STRESS PERIOD      2
 UBDSV06 SAVING              API IN MODEL GWF              PACKAGE GWF             CONNECTED TO MODEL GWF              PACKAGE MAR              ON UNIT   1099 AT TIME STEP     40, STRESS PERIOD      2
 UBDSV06 SAVING              CHD IN MODEL GWF              PACKAGE GWF             CONNECTED TO MODEL GWF              PACKAGE CHD_0            ON UNIT   1099 AT TIME STEP     40, STRESS PERIOD      2

    CALCULATED INTERCELL FLOW FOR PERIOD 2 STEP 40
(1,1,1): (1,1,2) 1.135430E-02 (1,2,1) 1.357657E-02
(1,1,2): (1,1,1) -1.135430E-02 (1,1,3) 2.581046E-02 (1,2,2) 2.940335E-02
(1,1,3): (1,1,2) -2.581046E-02 (1,1,4) 4.011259E-02 (1,2,3) 6.754350E-02
(1,1,4): (1,1,3) -4.011259E-02 (1,1,5) 4.099132E-02 (1,2,4) 0.131494
(1,1,5): (1,1,4) -4.099132E-02 (1,1,6) 1.675651E-02 (1,2,5) 0.201614
(1,1,6): (1,1,5) -1.675651E-02 (1,1,7) -1.655860E-02 (1,2,6) 0.228692
(1,1,7): (1,1,6) 1.655860E-02 (1,1,8) -4.042229E-02 (1,2,7) 0.201833
(1,1,8): (1,1,7) 4.042229E-02 (1,1,9) -3.833816E-02 (1,2,8) 0.132375
(1,1,9): (1,1,8) 3.833816E-02 (1,1,10) -2.091933E-02 (1,2,9) 7.059302E-02
(1,1,10): (1,1,9) 2.091933E-02 (1,2,10) 3.880123E-02
(1,2,1): (1,1,1) -1.357657E-02 (1,2,2) 2.718073E-02 (1,3,1) 3.300930E-02
(1,2,2): (1,1,2) -2.940335E-02 (1,2,1) -2.718073E-02 (1,2,3) 6.394924E-02 (1,3,2) 7.433193E-02
(1,2,3): (1,1,3) -6.754350E-02 (1,2,2) -6.394924E-02 (1,2,4) 0.104046 (1,3,3) 0.178738
(1,2,4): (1,1,4) -0.131494 (1,2,3) -0.104046 (1,2,5) 0.111048 (1,3,4) 0.366639
(1,2,5): (1,1,5) -0.201614 (1,2,4) -0.111048 (1,2,6) 4.378563E-02 (1,3,5) 0.590117
(1,2,6): (1,1,6) -0.228692 (1,2,5) -4.378563E-02 (1,2,7) -4.336820E-02 (1,3,6) 0.667781
(1,2,7): (1,1,7) -0.201833 (1,2,6) 4.336820E-02 (1,2,8) -0.109818 (1,3,7) 0.590629
(1,2,8): (1,1,8) -0.132375 (1,2,7) 0.109818 (1,2,9) -0.100100 (1,3,8) 0.368708
(1,2,9): (1,1,9) -7.059302E-02 (1,2,8) 0.100100 (1,2,10) -5.270545E-02 (1,3,9) 0.186037
(1,2,10): (1,1,10) -3.880123E-02 (1,2,9) 5.270545E-02 (1,3,10) 9.745926E-02
(1,3,1): (1,2,1) -3.300930E-02 (1,3,2) 6.850096E-02 (1,4,1) 5.384363E-02
(1,3,2): (1,2,2) -7.433193E-02 (1,3,1) -6.850096E-02 (1,3,3) 0.168344 (1,4,2) 0.128844
(1,3,3): (1,2,3) -0.178738 (1,3,2) -0.168344 (1,3,4) 0.291809 (1,4,3) 0.335436
(1,3,4): (1,2,4) -0.366639 (1,3,3) -0.291809 (1,3,5) 0.333967 (1,4,4) 0.762954
(1,3,5): (1,2,5) -0.590117 (1,3,4) -0.333967 (1,3,6) 0.121037 (1,4,5) 1.37412
(1,3,6): (1,2,6) -0.667781 (1,3,5) -0.121037 (1,3,7) -0.120110 (1,4,6) 1.52822
(1,3,7): (1,2,7) -0.590629 (1,3,6) 0.120110 (1,3,8) -0.331177 (1,4,7) 1.37492
(1,3,8): (1,2,8) -0.368708 (1,3,7) 0.331177 (1,3,9) -0.282616 (1,4,8) 0.766172
(1,3,9): (1,2,9) -0.186037 (1,3,8) 0.282616 (1,3,10) -0.141244 (1,4,9) 0.347057
(1,3,10): (1,2,10) -9.745926E-02 (1,3,9) 0.141244 (1,4,10) 0.167157
(1,4,1): (1,3,1) -5.384363E-02 (1,4,2) 0.143512 (1,5,1) 4.682624E-02
(1,4,2): (1,3,2) -0.128844 (1,4,1) -0.143512 (1,4,3) 0.375017 (1,5,2) 0.124499
(1,4,3): (1,3,3) -0.335436 (1,4,2) -0.375017 (1,4,4) 0.719145 (1,5,3) 0.384444
(1,4,4): (1,3,4) -0.762954 (1,4,3) -0.719145 (1,4,5) 0.942643 (1,5,4) 1.12724
(1,4,5): (1,3,5) -1.37412 (1,4,4) -0.942643 (1,4,6) 0.273339 (1,5,5) 2.78960
(1,4,6): (1,3,6) -1.52822 (1,4,5) -0.273339 (1,4,7) -0.271625 (1,5,6) 2.86852
(1,4,7): (1,3,7) -1.37492 (1,4,6) 0.271625 (1,4,8) -0.937402 (1,5,7) 2.79028
(1,4,8): (1,3,8) -0.766172 (1,4,7) 0.937402 (1,4,9) -0.701468 (1,5,8) 1.12987
(1,4,9): (1,3,9) -0.347057 (1,4,8) 0.701468 (1,4,10) -0.321099 (1,5,9) 0.394154
(1,4,10): (1,3,10) -0.167157 (1,4,9) 0.321099 (1,5,10) 0.158360
(1,5,1): (1,4,1) -4.682624E-02 (1,5,2) 0.221259 (1,6,1) -3.380970E-02
(1,5,2): (1,4,2) -0.124499 (1,5,1) -0.221259 (1,5,3) 0.635601 (1,6,2) -8.164861E-02
(1,5,3): (1,4,3) -0.384444 (1,5,2) -0.635601 (1,5,4) 1.46431 (1,6,3) -0.135804
(1,5,4): (1,4,4) -1.12724 (1,5,3) -1.46431 (1,5,5) 2.60223 (1,6,4) 0.397879
(1,5,5): (1,4,5) -2.78960 (1,5,4) -2.60223 (1,5,6) 0.350659 (1,6,5) 5.58859
(1,5,6): (1,4,6) -2.86852 (1,5,5) -0.350659 (1,5,7) -0.348284 (1,6,6) 4.14499
(1,5,7): (1,4,7) -2.79028 (1,5,6) 0.348284 (1,5,8) -2.59491 (1,6,7) 5.58826
(1,5,8): (1,4,8) -1.12987 (1,5,7) 2.59491 (1,5,9) -1.43934 (1,6,8) 0.396188
(1,5,9): (1,4,9) -0.394154 (1,5,8) 1.43934 (1,5,10) -0.557268 (1,6,9) -0.142748
(1,5,10): (1,4,10) -0.158360 (1,5,9) 0.557268 (1,6,10) -0.106903
(1,6,1): (1,5,1) 3.380970E-02 (1,6,2) 0.173354 (1,7,1) -0.157365
(1,6,2): (1,5,2) 8.164861E-02 (1,6,1) -0.173354 (1,6,3) 0.581182 (1,7,2) -0.487714
(1,6,3): (1,5,3) 0.135804 (1,6,2) -0.581182 (1,6,4) 2.00596 (1,7,3) -1.71325
(1,6,4): (1,5,4) -0.397879 (1,6,3) -2.00596 (1,6,5) 7.89119 (1,7,4) -5.82260
(1,6,5): (1,5,5) -5.58859 (1,6,4) -7.89119 (1,6,6) -1.04114 (1,7,5) -19.8819
(1,6,6): (1,5,6) -4.14499 (1,6,5) 1.04114 (1,6,7) 1.04323 (1,7,6) -32.2653
(1,6,7): (1,5,7) -5.58826 (1,6,6) -1.04323 (1,6,8) -7.88501 (1,7,7) -19.8836
(1,6,8): (1,5,8) -0.396188 (1,6,7) 7.88501 (1,6,9) -1.98622 (1,7,8) -5.82972
(1,6,9): (1,5,9) 0.142748 (1,6,8) 1.98622 (1,6,10) -0.521280 (1,7,9) -1.74305
(1,6,10): (1,5,10) 0.106903 (1,6,9) 0.521280 (1,7,10) -0.607192
(1,7,1): (1,6,1) 0.157365 (1,7,2) -0.156207 (1,8,1) -0.109280
(1,7,2): (1,6,2) 0.487714 (1,7,1) 0.156207 (1,7,3) -0.634797 (1,8,2) -0.341789
(1,7,3): (1,6,3) 1.71325 (1,7,2) 0.634797 (1,7,4) -1.99677 (1,8,3) -1.24329
(1,7,4): (1,6,4) 5.82260 (1,7,3) 1.99677 (1,7,5) -5.08948 (1,8,4) -4.44184
(1,7,5): (1,6,5) 19.8819 (1,7,4) 5.08948 (1,7,6) -11.4526 (1,8,5) -15.6323
(1,7,6): (1,6,6) 32.2653 (1,7,5) 11.4526 (1,7,7) 11.4533 (1,8,6) -56.9457
(1,7,7): (1,6,7) 19.8836 (1,7,6) -11.4533 (1,7,8) 5.09002 (1,8,7) -15.6335
(1,7,8): (1,6,8) 5.82972 (1,7,7) -5.09002 (1,7,9) 1.99354 (1,8,8) -4.44679
(1,7,9): (1,6,9) 1.74305 (1,7,8) -1.99354 (1,7,10) 0.604658 (1,8,9) -1.26387
(1,7,10): (1,6,10) 0.607192 (1,7,9) -0.604658 (1,8,10) -0.423991
(1,8,1): (1,7,1) 0.109280 (1,8,2) -0.388827 (1,9,1) 8.612961E-02
(1,8,2): (1,7,2) 0.341789 (1,8,1) 0.388827 (1,8,3) -1.53897 (1,9,2) 0.304846
(1,8,3): (1,7,3) 1.24329 (1,8,2) 1.53897 (1,8,4) -5.22053 (1,9,3) 1.18698
(1,8,4): (1,7,4) 4.44184 (1,8,3) 5.22053 (1,8,5) -16.3628 (1,9,4) 4.38053
(1,8,5): (1,7,5) 15.6323 (1,8,4) 16.3628 (1,8,6) -50.2808 (1,9,5) 15.5965
(1,8,6): (1,7,6) 56.9457 (1,8,5) 50.2808 (1,8,7) 50.2801 (1,9,6) 56.9134
(1,8,7): (1,7,7) 15.6335 (1,8,6) -50.2801 (1,8,8) 16.3590 (1,9,7) 15.5970
(1,8,8): (1,7,8) 4.44679 (1,8,7) -16.3590 (1,8,9) 5.20076 (1,9,8) 4.38343
(1,8,9): (1,7,9) 1.26387 (1,8,8) -5.20076 (1,8,10) 1.44607 (1,9,9) 1.20164
(1,8,10): (1,7,10) 0.423991 (1,8,9) -1.44607 (1,9,10) 0.372533
(1,9,1): (1,8,1) -8.612961E-02 (1,9,2) -0.169926 (1,10,1) 0.144257
(1,9,2): (1,8,2) -0.304846 (1,9,1) 0.169926 (1,9,3) -0.653718 (1,10,2) 0.466787
(1,9,3): (1,8,3) -1.18698 (1,9,2) 0.653718 (1,9,4) -1.99980 (1,10,3) 1.68217
(1,9,4): (1,8,4) -4.38053 (1,9,3) 1.99980 (1,9,5) -5.05971 (1,10,4) 5.79655
(1,9,5): (1,8,5) -15.5965 (1,9,4) 5.05971 (1,9,6) -11.4379 (1,10,5) 19.9192
(1,9,6): (1,8,6) -56.9134 (1,9,5) 11.4379 (1,9,7) 11.4379 (1,10,6) 32.3180
(1,9,7): (1,8,7) -15.5970 (1,9,6) -11.4379 (1,9,8) 5.05875 (1,10,7) 19.9205
(1,9,8): (1,8,8) -4.38343 (1,9,7) -5.05875 (1,9,9) 1.99261 (1,10,8) 5.80245
(1,9,9): (1,8,9) -1.20164 (1,9,8) -1.99261 (1,9,10) 0.614928 (1,10,9) 1.70856
(1,9,10): (1,8,10) -0.372533 (1,9,9) -0.614928 (1,10,10) 0.577973
(1,10,1): (1,9,1) -0.144257 (1,10,2) 0.151883 (1,11,1) 3.369851E-02
(1,10,2): (1,9,2) -0.466787 (1,10,1) -0.151883 (1,10,3) 0.552474 (1,11,2) 7.912898E-02
(1,10,3): (1,9,3) -1.68217 (1,10,2) -0.552474 (1,10,4) 2.00882 (1,11,3) 0.123372
(1,10,4): (1,9,4) -5.79655 (1,10,3) -2.00882 (1,10,5) 7.98146 (1,11,4) -0.440745
(1,10,5): (1,9,5) -19.9192 (1,10,4) -7.98146 (1,10,6) -1.01872 (1,11,5) -5.71414
(1,10,6): (1,9,6) -32.3180 (1,10,5) 1.01872 (1,10,7) 1.01988 (1,11,6) -4.28998
(1,10,7): (1,9,7) -19.9205 (1,10,6) -1.01988 (1,10,8) -7.97765 (1,11,7) -5.71380
(1,10,8): (1,9,8) -5.80245 (1,10,7) 7.97765 (1,10,9) -1.99525 (1,11,8) -0.439035
(1,10,9): (1,9,9) -1.70856 (1,10,8) 1.99525 (1,10,10) -0.506112 (1,11,9) 0.130342
(1,10,10): (1,9,10) -0.577973 (1,10,9) 0.506112 (1,11,10) 0.104056
(1,11,1): (1,10,1) -3.369851E-02 (1,11,2) 0.197367 (1,12,1) -3.738106E-02
(1,11,2): (1,10,2) -7.912898E-02 (1,11,1) -0.197367 (1,11,3) 0.596921 (1,12,2) -0.110486
(1,11,3): (1,10,3) -0.123372 (1,11,2) -0.596921 (1,11,4) 1.43644 (1,12,3) -0.366914
(1,11,4): (1,10,4) 0.440745 (1,11,3) -1.43644 (1,11,5) 2.60983 (1,12,4) -1.11972
(1,11,5): (1,10,5) 5.71414 (1,11,4) -2.60983 (1,11,6) 0.352719 (1,12,5) -2.81315
(1,11,6): (1,10,6) 4.28998 (1,11,5) -0.352719 (1,11,7) -0.351240 (1,12,6) -2.90343
(1,11,7): (1,10,7) 5.71380 (1,11,6) 0.351240 (1,11,8) -2.60478 (1,12,7) -2.81356
(1,11,8): (1,10,8) 0.439035 (1,11,7) 2.60478 (1,11,9) -1.41761 (1,12,8) -1.12149
(1,11,9): (1,10,9) -0.130342 (1,11,8) 1.41761 (1,11,10) -0.532500 (1,12,9) -0.374162
(1,11,10): (1,10,10) -0.104056 (1,11,9) 0.532500 (1,12,10) -0.138526
(1,12,1): (1,11,1) 3.738106E-02 (1,12,2) 0.124199 (1,13,1) -4.253565E-02
(1,12,2): (1,11,2) 0.110486 (1,12,1) -0.124199 (1,12,3) 0.339915 (1,13,2) -0.110039
(1,12,3): (1,11,3) 0.366914 (1,12,2) -0.339915 (1,12,4) 0.681368 (1,13,3) -0.304339
(1,12,4): (1,11,4) 1.11972 (1,12,3) -0.681368 (1,12,5) 0.919482 (1,13,4) -0.722135
(1,12,5): (1,11,5) 2.81315 (1,12,4) -0.919482 (1,12,6) 0.264308 (1,13,5) -1.33259
(1,12,6): (1,11,6) 2.90343 (1,12,5) -0.264308 (1,12,7) -0.263233 (1,13,6) -1.48668
(1,12,7): (1,11,7) 2.81356 (1,12,6) 0.263233 (1,12,8) -0.915879 (1,13,7) -1.33310
(1,12,8): (1,11,8) 1.12149 (1,12,7) 0.915879 (1,12,9) -0.668183 (1,13,8) -0.724374
(1,12,9): (1,11,9) 0.374162 (1,12,8) 0.668183 (1,12,10) -0.296499 (1,13,9) -0.313092
(1,12,10): (1,11,10) 0.138526 (1,12,9) 0.296499 (1,13,10) -0.141171
(1,13,1): (1,12,1) 4.253565E-02 (1,13,2) 5.668576E-02 (1,14,1) -2.499604E-02
(1,13,2): (1,12,2) 0.110039 (1,13,1) -5.668576E-02 (1,13,3) 0.145547 (1,14,2) -6.040140E-02
(1,13,3): (1,12,3) 0.304339 (1,13,2) -0.145547 (1,13,4) 0.263737 (1,14,3) -0.153745
(1,13,4): (1,12,4) 0.722135 (1,13,3) -0.263737 (1,13,5) 0.311424 (1,14,4) -0.328867
(1,13,5): (1,12,5) 1.33259 (1,13,4) -0.311424 (1,13,6) 0.111973 (1,14,5) -0.543079
(1,13,6): (1,12,6) 1.48668 (1,13,5) -0.111973 (1,13,7) -0.111406 (1,14,6) -0.617092
(1,13,7): (1,12,7) 1.33310 (1,13,6) 0.111406 (1,13,8) -0.309565 (1,14,7) -0.543402
(1,13,8): (1,12,8) 0.724374 (1,13,7) 0.309565 (1,13,9) -0.257125 (1,14,8) -0.330265
(1,13,9): (1,12,9) 0.313092 (1,13,8) 0.257125 (1,13,10) -0.124606 (1,14,9) -0.159045
(1,13,10): (1,12,10) 0.141171 (1,13,9) 0.124606 (1,14,10) -7.838490E-02
(1,14,1): (1,13,1) 2.499604E-02 (1,14,2) 2.128170E-02 (1,15,1) -9.857126E-03
(1,14,2): (1,13,2) 6.040140E-02 (1,14,1) -2.128170E-02 (1,14,3) 5.221145E-02 (1,15,2) -2.281342E-02
(1,14,3): (1,13,3) 0.153745 (1,14,2) -5.221145E-02 (1,14,4) 8.872814E-02 (1,15,3) -5.533670E-02
(1,14,4): (1,13,4) 0.328867 (1,14,3) -8.872814E-02 (1,14,5) 9.769825E-02 (1,15,4) -0.112176
(1,14,5): (1,13,5) 0.543079 (1,14,4) -9.769825E-02 (1,14,6) 3.832380E-02 (1,15,5) -0.176334
(1,14,6): (1,13,6) 0.617092 (1,14,5) -3.832380E-02 (1,14,7) -3.807916E-02 (1,15,6) -0.200994
(1,14,7): (1,13,7) 0.543402 (1,14,6) 3.807916E-02 (1,14,8) -9.691581E-02 (1,15,7) -0.176469
(1,14,8): (1,13,8) 0.330265 (1,14,7) 9.691581E-02 (1,14,9) -8.602927E-02 (1,15,8) -0.112751
(1,14,9): (1,13,9) 0.159045 (1,14,8) 8.602927E-02 (1,14,10) -4.397288E-02 (1,15,9) -5.746689E-02
(1,14,10): (1,13,10) 7.838490E-02 (1,14,9) 4.397288E-02 (1,15,10) -2.981562E-02
(1,15,1): (1,14,1) 9.857126E-03 (1,15,2) 8.325610E-03
(1,15,2): (1,14,2) 2.281342E-02 (1,15,1) -8.325610E-03 (1,15,3) 1.968919E-02
(1,15,3): (1,14,3) 5.533670E-02 (1,15,2) -1.968919E-02 (1,15,4) 3.190228E-02
(1,15,4): (1,14,4) 0.112176 (1,15,3) -3.190228E-02 (1,15,5) 3.359032E-02
(1,15,5): (1,14,5) 0.176334 (1,15,4) -3.359032E-02 (1,15,6) 1.370341E-02
(1,15,6): (1,14,6) 0.200994 (1,15,5) -1.370341E-02 (1,15,7) -1.359343E-02
(1,15,7): (1,14,7) 0.176469 (1,15,6) 1.359343E-02 (1,15,8) -3.324853E-02
(1,15,8): (1,14,8) 0.112751 (1,15,7) 3.324853E-02 (1,15,9) -3.075981E-02
(1,15,9): (1,14,9) 5.746689E-02 (1,15,8) 3.075981E-02 (1,15,10) -1.632534E-02
(1,15,10): (1,14,10) 2.981562E-02 (1,15,9) 1.632534E-02

 WEL PACKAGE (WEL-1) FLOW RATES   PERIOD      2   STEP       40
 ----------------------------------------------------------------------------------------
   NUMBER   CELLID                    RATE       NAME                                    
 ----------------------------------------------------------------------------------------
     1      (1,8,6)              -214.82820      WEL                                     
 ----------------------------------------------------------------------------------------




 DRN PACKAGE (DRN-0) FLOW RATES   PERIOD      2   STEP       40
 ----------------------------------------------------------------------------------------
   NUMBER   CELLID                    RATE       NAME                                    
 ----------------------------------------------------------------------------------------
     1      (1,1,1)               0.0000000      SURF                                    
     2      (1,1,2)               0.0000000      SURF                                    
     3      (1,1,3)               0.0000000      SURF                                    
     4      (1,1,4)               0.0000000      SURF                                    
     5      (1,1,5)               0.0000000      SURF                                    
     6      (1,1,6)               0.0000000      SURF                                    
     7      (1,1,7)               0.0000000      SURF                                    
     8      (1,1,8)               0.0000000      SURF                                    
     9      (1,1,9)               0.0000000      SURF                                    
     10     (1,1,10)              0.0000000      SURF                                    
     11     (1,2,1)               0.0000000      SURF                                    
     12     (1,2,2)               0.0000000      SURF                                    
     13     (1,2,3)               0.0000000      SURF                                    
     14     (1,2,4)               0.0000000      SURF                                    
     15     (1,2,5)               0.0000000      SURF                                    
     16     (1,2,6)               0.0000000      SURF                                    
     17     (1,2,7)               0.0000000      SURF                                    
     18     (1,2,8)               0.0000000      SURF                                    
     19     (1,2,9)               0.0000000      SURF                                    
     20     (1,2,10)              0.0000000      SURF                                    
     21     (1,3,1)               0.0000000      SURF                                    
     22     (1,3,2)               0.0000000      SURF                                    
     23     (1,3,3)               0.0000000      SURF                                    
     24     (1,3,4)               0.0000000      SURF                                    
     25     (1,3,5)               0.0000000      SURF                                    
     26     (1,3,6)               0.0000000      SURF                                    
     27     (1,3,7)               0.0000000      SURF                                    
     28     (1,3,8)               0.0000000      SURF                                    
     29     (1,3,9)               0.0000000      SURF                                    
     30     (1,3,10)              0.0000000      SURF                                    
     31     (1,4,1)               0.0000000      SURF                                    
     32     (1,4,2)               0.0000000      SURF                                    
     33     (1,4,3)               0.0000000      SURF                                    
     34     (1,4,4)               0.0000000      SURF                                    
     35     (1,4,5)               0.0000000      SURF                                    
     36     (1,4,6)               0.0000000      SURF                                    
     37     (1,4,7)               0.0000000      SURF                                    
     38     (1,4,8)               0.0000000      SURF                                    
     39     (1,4,9)               0.0000000      SURF                                    
     40     (1,4,10)              0.0000000      SURF                                    
     41     (1,5,1)               0.0000000      SURF                                    
     42     (1,5,2)               0.0000000      SURF                                    
     43     (1,5,3)               0.0000000      SURF                                    
     44     (1,5,4)               0.0000000      SURF                                    
     45     (1,5,5)               0.0000000      SURF                                    
     46     (1,5,6)               0.0000000      SURF                                    
     47     (1,5,7)               0.0000000      SURF                                    
     48     (1,5,8)               0.0000000      SURF                                    
     49     (1,5,9)               0.0000000      SURF                                    
     50     (1,5,10)              0.0000000      SURF                                    
     51     (1,6,1)               0.0000000      SURF                                    
     52     (1,6,2)               0.0000000      SURF                                    
     53     (1,6,3)               0.0000000      SURF                                    
     54     (1,6,4)               0.0000000      SURF                                    
     55     (1,6,5)               0.0000000      SURF                                    
     56     (1,6,6)               0.0000000      SURF                                    
     57     (1,6,7)              -8.96397978E-09 SURF                                    
     58     (1,6,8)               0.0000000      SURF                                    
     59     (1,6,9)               0.0000000      SURF                                    
     60     (1,6,10)              0.0000000      SURF                                    
     61     (1,7,1)               0.0000000      SURF                                    
     62     (1,7,2)               0.0000000      SURF                                    
     63     (1,7,3)               0.0000000      SURF                                    
     64     (1,7,4)               0.0000000      SURF                                    
     65     (1,7,5)               0.0000000      SURF                                    
     66     (1,7,6)               0.0000000      SURF                                    
     67     (1,7,7)               0.0000000      SURF                                    
     68     (1,7,8)               0.0000000      SURF                                    
     69     (1,7,9)               0.0000000      SURF                                    
     70     (1,7,10)              0.0000000      SURF                                    
     71     (1,8,1)               0.0000000      SURF                                    
     72     (1,8,2)               0.0000000      SURF                                    
     73     (1,8,3)               0.0000000      SURF                                    
     74     (1,8,4)               0.0000000      SURF                                    
     75     (1,8,5)               0.0000000      SURF                                    
     76     (1,8,6)               0.0000000      SURF                                    
     77     (1,8,7)               0.0000000      SURF                                    
     78     (1,8,8)               0.0000000      SURF                                    
     79     (1,8,9)               0.0000000      SURF                                    
     80     (1,8,10)              0.0000000      SURF                                    
     81     (1,9,1)               0.0000000      SURF                                    
     82     (1,9,2)               0.0000000      SURF                                    
     83     (1,9,3)               0.0000000      SURF                                    
     84     (1,9,4)               0.0000000      SURF                                    
     85     (1,9,5)               0.0000000      SURF                                    
     86     (1,9,6)               0.0000000      SURF                                    
     87     (1,9,7)               0.0000000      SURF                                    
     88     (1,9,8)               0.0000000      SURF                                    
     89     (1,9,9)               0.0000000      SURF                                    
     90     (1,9,10)              0.0000000      SURF                                    
     91     (1,10,1)              0.0000000      SURF                                    
     92     (1,10,2)              0.0000000      SURF                                    
     93     (1,10,3)              0.0000000      SURF                                    
     94     (1,10,4)              0.0000000      SURF                                    
     95     (1,10,5)              0.0000000      SURF                                    
     96     (1,10,6)              0.0000000      SURF                                    
     97     (1,10,7)             -3.64190782E-07 SURF                                    
     98     (1,10,8)              0.0000000      SURF                                    
     99     (1,10,9)              0.0000000      SURF                                    
    100     (1,10,10)             0.0000000      SURF                                    
    101     (1,11,1)              0.0000000      SURF                                    
    102     (1,11,2)              0.0000000      SURF                                    
    103     (1,11,3)              0.0000000      SURF                                    
    104     (1,11,4)              0.0000000      SURF                                    
    105     (1,11,5)              0.0000000      SURF                                    
    106     (1,11,6)              0.0000000      SURF                                    
    107     (1,11,7)              0.0000000      SURF                                    
    108     (1,11,8)              0.0000000      SURF                                    
    109     (1,11,9)              0.0000000      SURF                                    
    110     (1,11,10)             0.0000000      SURF                                    
    111     (1,12,1)              0.0000000      SURF                                    
    112     (1,12,2)              0.0000000      SURF                                    
    113     (1,12,3)              0.0000000      SURF                                    
    114     (1,12,4)              0.0000000      SURF                                    
    115     (1,12,5)              0.0000000      SURF                                    
    116     (1,12,6)              0.0000000      SURF                                    
    117     (1,12,7)              0.0000000      SURF                                    
    118     (1,12,8)              0.0000000      SURF                                    
    119     (1,12,9)              0.0000000      SURF                                    
    120     (1,12,10)             0.0000000      SURF                                    
    121     (1,13,1)              0.0000000      SURF                                    
    122     (1,13,2)              0.0000000      SURF                                    
    123     (1,13,3)              0.0000000      SURF                                    
    124     (1,13,4)              0.0000000      SURF                                    
    125     (1,13,5)              0.0000000      SURF                                    
    126     (1,13,6)              0.0000000      SURF                                    
    127     (1,13,7)              0.0000000      SURF                                    
    128     (1,13,8)              0.0000000      SURF                                    
    129     (1,13,9)              0.0000000      SURF                                    
    130     (1,13,10)             0.0000000      SURF                                    
    131     (1,14,1)              0.0000000      SURF                                    
    132     (1,14,2)              0.0000000      SURF                                    
    133     (1,14,3)              0.0000000      SURF                                    
    134     (1,14,4)              0.0000000      SURF                                    
    135     (1,14,5)              0.0000000      SURF                                    
    136     (1,14,6)              0.0000000      SURF                                    
    137     (1,14,7)              0.0000000      SURF                                    
    138     (1,14,8)              0.0000000      SURF                                    
    139     (1,14,9)              0.0000000      SURF                                    
    140     (1,14,10)             0.0000000      SURF                                    
    141     (1,15,1)              0.0000000      SURF                                    
    142     (1,15,2)              0.0000000      SURF                                    
    143     (1,15,3)              0.0000000      SURF                                    
    144     (1,15,4)              0.0000000      SURF                                    
    145     (1,15,5)              0.0000000      SURF                                    
    146     (1,15,6)              0.0000000      SURF                                    
    147     (1,15,7)              0.0000000      SURF                                    
    148     (1,15,8)              0.0000000      SURF                                    
    149     (1,15,9)              0.0000000      SURF                                    
    150     (1,15,10)             0.0000000      SURF                                    
 ----------------------------------------------------------------------------------------




 API PACKAGE (MAR) FLOW RATES   PERIOD      2   STEP       40
 -----------------------------------------------
   NUMBER   CELLID                    RATE      
 -----------------------------------------------
     1      (1,6,5)               34.400144     
     2      (1,6,6)               34.400144     
     3      (1,6,7)               34.400144     
     4      (1,10,5)              34.631785     
     5      (1,10,6)              34.631785     
     6      (1,10,7)              34.631785     
 -----------------------------------------------



1
  HEAD IN LAYER   1 AT END OF TIME STEP  40 IN STRESS PERIOD    2
  ---------------------------------------------------------------------------

            1           2           3           4           5           6           7           8           9          10
 ........................................................................................................................
   1   1.0995E-03  2.2347E-03  4.8145E-03  8.8222E-03  1.2916E-02  1.4589E-02  1.2936E-02  8.8988E-03  5.0684E-03  2.9775E-03
   2   2.4568E-03  5.1735E-03  1.1561E-02  2.1943E-02  3.3011E-02  3.7373E-02  3.3053E-02  2.2107E-02  1.2119E-02  6.8550E-03
   3   5.7559E-03  1.2597E-02  2.9382E-02  5.8394E-02  9.1488E-02  0.1035      9.1580E-02  5.8762E-02  3.0666E-02  1.6585E-02
   4   1.1134E-02  2.5449E-02  6.2717E-02  0.1337      0.2259      0.2525      0.2260      0.1344      6.5147E-02  3.3245E-02
   5   1.5809E-02  3.7852E-02  0.1008      0.2437      0.4918      0.5251      0.4920      0.2447      0.1042      4.9004E-02
   6   1.2434E-02  2.9718E-02  8.7333E-02  0.2824      0.9998      0.9052       1.000      0.2832      9.0029E-02  3.8366E-02
   7  -3.2831E-03 -1.8909E-02 -8.2509E-02 -0.2838     -0.8077      -2.054     -0.8076     -0.2837     -8.2721E-02 -2.2121E-02
   8  -1.4215E-02 -5.3153E-02 -0.2079     -0.7410      -2.508      -9.220      -2.508     -0.7414     -0.2102     -6.4615E-02
   9  -5.5969E-03 -2.2599E-02 -8.8119E-02 -0.2899     -0.8110      -2.056     -0.8110     -0.2900     -8.8920E-02 -2.7259E-02
  10   8.8161E-03  2.3968E-02  7.8784E-02  0.2743      0.9999      0.9073       1.000      0.2748      8.0570E-02  3.0363E-02
  11   1.2182E-02  3.1856E-02  9.1010E-02  0.2314      0.4804      0.5140      0.4806      0.2320      9.3483E-02  4.0726E-02
  12   8.4483E-03  2.0842E-02  5.4649E-02  0.1220      0.2120      0.2378      0.2121      0.1224      5.6413E-02  2.6930E-02
  13   4.1983E-03  9.8613E-03  2.4381E-02  5.0622E-02  8.1512E-02  9.2607E-02  8.1568E-02  5.0862E-02  2.5280E-02  1.2851E-02
  14   1.6998E-03  3.8271E-03  9.0436E-03  1.7901E-02  2.7643E-02  3.1464E-02  2.7668E-02  1.8003E-02  9.4155E-03  5.0224E-03
  15   7.1425E-04  1.5467E-03  3.5149E-03  6.7030E-03  1.0059E-02  1.1427E-02  1.0070E-02  6.7481E-03  3.6742E-03  2.0423E-03

 HEAD WILL BE SAVED ON UNIT 1100 AT END OF TIME STEP   40, STRESS PERIOD    2


  VOLUME BUDGET FOR ENTIRE MODEL AT END OF TIME STEP   40, STRESS PERIOD   2
  ---------------------------------------------------------------------------------------------------

     CUMULATIVE VOLUME      L**3       RATES FOR THIS TIME STEP      L**3/T          PACKAGE NAME    
     ------------------                 ------------------------                     ----------------

           IN:                                      IN:
           ---                                      ---
              STO-SS =          20.1608                STO-SS =       1.8029E-02     STORAGE                          
              STO-SY =       51296.9550                STO-SY =          39.7522     STORAGE                          
                 WEL =           0.0000                   WEL =           0.0000     WEL-1                            
                 DRN =           0.0000                   DRN =           0.0000     DRN-0                            
                 API =       80413.3003                   API =         207.0958     MAR                              
                 CHD =       2.0279E-08                   CHD =           0.0000     CHD_0                            

            TOTAL IN =      131730.4160              TOTAL IN =         246.8660

          OUT:                                     OUT:
          ----                                     ----
              STO-SS =          16.4410                STO-SS =       1.6242E-02     STORAGE                          
              STO-SY =       32015.7647                STO-SY =          32.0216     STORAGE                          
                 WEL =       99698.2102                   WEL =         214.8282     WEL-1                            
                 DRN =       1.2967E-04                   DRN =       3.7315E-07     DRN-0                            
                 API =           0.0000                   API =           0.0000     MAR                              
                 CHD =       2.0705E-08                   CHD =           0.0000     CHD_0                            

           TOTAL OUT =      131730.4160             TOTAL OUT =         246.8660

            IN - OUT =      -9.9986E-07              IN - OUT =      -3.0208E-09

 PERCENT DISCREPANCY =          -0.00     PERCENT DISCREPANCY =          -0.00




         TIME SUMMARY AT END OF TIME STEP   40 IN STRESS PERIOD    2
                    SECONDS     MINUTES      HOURS       DAYS        YEARS
                    -----------------------------------------------------------
   TIME STEP LENGTH 8.64000E+05  14400.      240.00      10.000     2.73785E-02
 STRESS PERIOD TIME 3.45600E+07 5.76000E+05  9600.0      400.00      1.0951    
         TOTAL TIME 3.46464E+07 5.77440E+05  9624.0      401.00      1.0979    


end timestep


start timestep kper="2" kstp="41" mode="normal"

 UBDSV1 SAVING           STO-SS ON UNIT   1099 AT TIME STEP     41, STRESS PERIOD      2
 UBDSV1 SAVING           STO-SY ON UNIT   1099 AT TIME STEP     41, STRESS PERIOD      2
 UBDSV1 SAVING     FLOW-JA-FACE ON UNIT   1099 AT TIME STEP     41, STRESS PERIOD      2
 UBDSV06 SAVING       DATA-SPDIS IN MODEL GWF              PACKAGE NPF             CONNECTED TO MODEL GWF              PACKAGE NPF              ON UNIT   1099 AT TIME STEP     41, STRESS PERIOD      2
 UBDSV06 SAVING              WEL IN MODEL GWF              PACKAGE GWF             CONNECTED TO MODEL GWF              PACKAGE WEL-1            ON UNIT   1099 AT TIME STEP     41, STRESS PERIOD      2
 UBDSV06 SAVING              DRN IN MODEL GWF              PACKAGE GWF             CONNECTED TO MODEL GWF              PACKAGE DRN-0            ON UNIT   1099 AT TIME STEP     41, STRESS PERIOD      2
 UBDSV06 SAVING              API IN MODEL GWF              PACKAGE GWF             CONNECTED TO MODEL GWF              PACKAGE MAR              ON UNIT   1099 AT TIME STEP     41, STRESS PERIOD      2
 UBDSV06 SAVING              CHD IN MODEL GWF              PACKAGE GWF             CONNECTED TO MODEL GWF              PACKAGE CHD_0            ON UNIT   1099 AT TIME STEP     41, STRESS PERIOD      2

    CALCULATED INTERCELL FLOW FOR PERIOD 2 STEP 41
(1,1,1): (1,1,2) 1.234014E-02 (1,2,1) 1.469694E-02
(1,1,2): (1,1,1) -1.234014E-02 (1,1,3) 2.777081E-02 (1,2,2) 3.132283E-02
(1,1,3): (1,1,2) -2.777081E-02 (1,1,4) 4.269516E-02 (1,2,3) 7.101318E-02
(1,1,4): (1,1,3) -4.269516E-02 (1,1,5) 4.327668E-02 (1,2,4) 0.136929
(1,1,5): (1,1,4) -4.327668E-02 (1,1,6) 1.766920E-02 (1,2,5) 0.208710
(1,1,6): (1,1,5) -1.766920E-02 (1,1,7) -1.743781E-02 (1,2,6) 0.236411
(1,1,7): (1,1,6) 1.743781E-02 (1,1,8) -4.262488E-02 (1,2,7) 0.208958
(1,1,8): (1,1,7) 4.262488E-02 (1,1,9) -4.069957E-02 (1,2,8) 0.137907
(1,1,9): (1,1,8) 4.069957E-02 (1,1,10) -2.236469E-02 (1,2,9) 7.434438E-02
(1,1,10): (1,1,9) 2.236469E-02 (1,2,10) 4.142815E-02
(1,2,1): (1,1,1) -1.469694E-02 (1,2,2) 2.896564E-02 (1,3,1) 3.517414E-02
(1,2,2): (1,1,2) -3.132283E-02 (1,2,1) -2.896564E-02 (1,2,3) 6.745975E-02 (1,3,2) 7.794458E-02
(1,2,3): (1,1,3) -7.101318E-02 (1,2,2) -6.745975E-02 (1,2,4) 0.108592 (1,3,3) 0.185056
(1,2,4): (1,1,4) -0.136929 (1,2,3) -0.108592 (1,2,5) 0.114991 (1,3,4) 0.376222
(1,2,5): (1,1,5) -0.208710 (1,2,4) -0.114991 (1,2,6) 4.531719E-02 (1,3,5) 0.602354
(1,2,6): (1,1,6) -0.236411 (1,2,5) -4.531719E-02 (1,2,7) -4.483828E-02 (1,3,6) 0.680909
(1,2,7): (1,1,7) -0.208958 (1,2,6) 4.483828E-02 (1,2,8) -0.113609 (1,3,7) 0.602923
(1,2,8): (1,1,8) -0.137907 (1,2,7) 0.113609 (1,2,9) -0.104241 (1,3,8) 0.378485
(1,2,9): (1,1,9) -7.434438E-02 (1,2,8) 0.104241 (1,2,10) -5.527467E-02 (1,3,9) 0.192907
(1,2,10): (1,1,10) -4.142815E-02 (1,2,9) 5.527467E-02 (1,3,10) 0.102427
(1,3,1): (1,2,1) -3.517414E-02 (1,3,2) 7.173344E-02 (1,4,1) 5.614436E-02
(1,3,2): (1,2,2) -7.794458E-02 (1,3,1) -7.173344E-02 (1,3,3) 0.174560 (1,4,2) 0.132310
(1,3,3): (1,2,3) -0.185056 (1,3,2) -0.174560 (1,3,4) 0.299614 (1,4,3) 0.340729
(1,3,4): (1,2,4) -0.376222 (1,3,3) -0.299614 (1,3,5) 0.340545 (1,4,4) 0.770017
(1,3,5): (1,2,5) -0.602354 (1,3,4) -0.340545 (1,3,6) 0.123447 (1,4,5) 1.38273
(1,3,6): (1,2,6) -0.680909 (1,3,5) -0.123447 (1,3,7) -0.122402 (1,4,6) 1.53704
(1,3,7): (1,2,7) -0.602923 (1,3,6) 0.122402 (1,3,8) -0.337465 (1,4,7) 1.38360
(1,3,8): (1,2,8) -0.378485 (1,3,7) 0.337465 (1,3,9) -0.289656 (1,4,8) 0.773462
(1,3,9): (1,2,9) -0.192907 (1,3,8) 0.289656 (1,3,10) -0.145713 (1,4,9) 0.352959
(1,3,10): (1,2,10) -0.102427 (1,3,9) 0.145713 (1,4,10) 0.172008
(1,4,1): (1,3,1) -5.614436E-02 (1,4,2) 0.147910 (1,5,1) 4.684637E-02
(1,4,2): (1,3,2) -0.132310 (1,4,1) -0.147910 (1,4,3) 0.383066 (1,5,2) 0.123226
(1,4,3): (1,3,3) -0.340729 (1,4,2) -0.383066 (1,4,4) 0.728731 (1,5,3) 0.379743
(1,4,4): (1,3,4) -0.770017 (1,4,3) -0.728731 (1,4,5) 0.950763 (1,5,4) 1.11791
(1,4,5): (1,3,5) -1.38273 (1,4,4) -0.950763 (1,4,6) 0.275943 (1,5,5) 2.77982
(1,4,6): (1,3,6) -1.53704 (1,4,5) -0.275943 (1,4,7) -0.274043 (1,5,6) 2.85810
(1,4,7): (1,3,7) -1.38360 (1,4,6) 0.274043 (1,4,8) -0.945074 (1,5,7) 2.78052
(1,4,8): (1,3,8) -0.773462 (1,4,7) 0.945074 (1,4,9) -0.709900 (1,5,8) 1.12062
(1,4,9): (1,3,9) -0.352959 (1,4,8) 0.709900 (1,4,10) -0.326617 (1,5,9) 0.389535
(1,4,10): (1,3,10) -0.172008 (1,4,9) 0.326617 (1,5,10) 0.156896
(1,5,1): (1,4,1) -4.684637E-02 (1,5,2) 0.224367 (1,6,1) -3.857019E-02
(1,5,2): (1,4,2) -0.123226 (1,5,1) -0.224367 (1,5,3) 0.640237 (1,6,2) -9.219213E-02
(1,5,3): (1,4,3) -0.379743 (1,5,2) -0.640237 (1,5,4) 1.46935 (1,6,3) -0.158901
(1,5,4): (1,4,4) -1.11791 (1,5,3) -1.46935 (1,5,5) 2.61015 (1,6,4) 0.360790
(1,5,5): (1,4,5) -2.77982 (1,5,4) -2.61015 (1,5,6) 0.352660 (1,6,5) 5.55971
(1,5,6): (1,4,6) -2.85810 (1,5,5) -0.352660 (1,5,7) -0.350068 (1,6,6) 4.11950
(1,5,7): (1,4,7) -2.78052 (1,5,6) 0.350068 (1,5,8) -2.60234 (1,6,7) 5.55932
(1,5,8): (1,4,8) -1.12062 (1,5,7) 2.60234 (1,5,9) -1.44321 (1,6,8) 0.358808
(1,5,9): (1,4,9) -0.389535 (1,5,8) 1.44321 (1,5,10) -0.559642 (1,6,9) -0.166897
(1,5,10): (1,4,10) -0.156896 (1,5,9) 0.559642 (1,6,10) -0.120826
(1,6,1): (1,5,1) 3.857019E-02 (1,6,2) 0.170674 (1,7,1) -0.165348
(1,6,2): (1,5,2) 9.219213E-02 (1,6,1) -0.170674 (1,6,3) 0.573216 (1,7,2) -0.504279
(1,6,3): (1,5,3) 0.158901 (1,6,2) -0.573216 (1,6,4) 1.99688 (1,7,3) -1.74919
(1,6,4): (1,5,4) -0.360790 (1,6,3) -1.99688 (1,6,5) 7.90955 (1,7,4) -5.88883
(1,6,5): (1,5,5) -5.55971 (1,6,4) -7.90955 (1,6,6) -1.03616 (1,7,5) -19.9902
(1,6,6): (1,5,6) -4.11950 (1,6,5) 1.03616 (1,6,7) 1.03840 (1,7,6) -32.3601
(1,6,7): (1,5,7) -5.55932 (1,6,6) -1.03840 (1,6,8) -7.90310 (1,7,7) -19.9921
(1,6,8): (1,5,8) -0.358808 (1,6,7) 7.90310 (1,6,9) -1.97674 (1,7,8) -5.89650
(1,6,9): (1,5,9) 0.166897 (1,6,8) 1.97674 (1,6,10) -0.513396 (1,7,9) -1.78082
(1,6,10): (1,5,10) 0.120826 (1,6,9) 0.513396 (1,7,10) -0.629203
(1,7,1): (1,6,1) 0.165348 (1,7,2) -0.167414 (1,8,1) -0.113508
(1,7,2): (1,6,2) 0.504279 (1,7,1) 0.167414 (1,7,3) -0.661739 (1,8,2) -0.350035
(1,7,3): (1,6,3) 1.74919 (1,7,2) 0.661739 (1,7,4) -2.03364 (1,8,3) -1.25977
(1,7,4): (1,6,4) 5.88883 (1,7,3) 2.03364 (1,7,5) -5.10113 (1,8,4) -4.46588
(1,7,5): (1,6,5) 19.9902 (1,7,4) 5.10113 (1,7,6) -11.4245 (1,8,5) -15.6403
(1,7,6): (1,6,6) 32.3601 (1,7,5) 11.4245 (1,7,7) 11.4251 (1,8,6) -56.8377
(1,7,7): (1,6,7) 19.9921 (1,7,6) -11.4251 (1,7,8) 5.10155 (1,8,7) -15.6415
(1,7,8): (1,6,8) 5.89650 (1,7,7) -5.10155 (1,7,9) 2.02951 (1,8,8) -4.47114
(1,7,9): (1,6,9) 1.78082 (1,7,8) -2.02951 (1,7,10) 0.627880 (1,8,9) -1.28133
(1,7,10): (1,6,10) 0.629203 (1,7,9) -0.627880 (1,8,10) -0.435014
(1,8,1): (1,7,1) 0.113508 (1,8,2) -0.404069 (1,9,1) 9.020646E-02
(1,8,2): (1,7,2) 0.350035 (1,8,1) 0.404069 (1,8,3) -1.57434 (1,9,2) 0.313646
(1,8,3): (1,7,3) 1.25977 (1,8,2) 1.57434 (1,8,4) -5.26574 (1,9,3) 1.20545
(1,8,4): (1,7,4) 4.46588 (1,8,3) 5.26574 (1,8,5) -16.3569 (1,9,4) 4.40781
(1,8,5): (1,7,5) 15.6403 (1,8,4) 16.3569 (1,8,6) -50.1167 (1,9,5) 15.6073
(1,8,6): (1,7,6) 56.8377 (1,8,5) 50.1167 (1,8,7) 50.1158 (1,9,6) 56.8092
(1,8,7): (1,7,7) 15.6415 (1,8,6) -50.1158 (1,8,8) 16.3526 (1,9,7) 15.6079
(1,8,8): (1,7,8) 4.47114 (1,8,7) -16.3526 (1,8,9) 5.24434 (1,9,8) 4.41095
(1,8,9): (1,7,9) 1.28133 (1,8,8) -5.24434 (1,8,10) 1.47585 (1,9,9) 1.22099
(1,8,10): (1,7,10) 0.435014 (1,8,9) -1.47585 (1,9,10) 0.384190
(1,9,1): (1,8,1) -9.020646E-02 (1,9,2) -0.180427 (1,10,1) 0.152010
(1,9,2): (1,8,2) -0.313646 (1,9,1) 0.180427 (1,9,3) -0.679238 (1,10,2) 0.483376
(1,9,3): (1,8,3) -1.20545 (1,9,2) 0.679238 (1,9,4) -2.03550 (1,10,3) 1.71859
(1,9,4): (1,8,4) -4.40781 (1,9,3) 2.03550 (1,9,5) -5.07206 (1,10,4) 5.86308
(1,9,5): (1,8,5) -15.6073 (1,9,4) 5.07206 (1,9,6) -11.4103 (1,10,5) 20.0246
(1,9,6): (1,8,6) -56.8092 (1,9,5) 11.4103 (1,9,7) 11.4103 (1,10,6) 32.4093
(1,9,7): (1,8,7) -15.6079 (1,9,6) -11.4103 (1,9,8) 5.07093 (1,10,7) 20.0261
(1,9,8): (1,8,8) -4.41095 (1,9,7) -5.07093 (1,9,9) 2.02740 (1,10,8) 5.86947
(1,9,9): (1,8,9) -1.22099 (1,9,8) -2.02740 (1,9,10) 0.636905 (1,10,9) 1.74670
(1,9,10): (1,8,10) -0.384190 (1,9,9) -0.636905 (1,10,10) 0.599954
(1,10,1): (1,9,1) -0.152010 (1,10,2) 0.150167 (1,11,1) 3.816498E-02
(1,10,2): (1,9,2) -0.483376 (1,10,1) -0.150167 (1,10,3) 0.546384 (1,11,2) 8.921755E-02
(1,10,3): (1,9,3) -1.71859 (1,10,2) -0.546384 (1,10,4) 2.00073 (1,11,3) 0.146026
(1,10,4): (1,9,4) -5.86308 (1,10,3) -2.00073 (1,10,5) 7.99623 (1,11,4) -0.402909
(1,10,5): (1,9,5) -20.0246 (1,10,4) -7.99623 (1,10,6) -1.01444 (1,11,5) -5.68035
(1,10,6): (1,9,6) -32.4093 (1,10,5) 1.01444 (1,10,7) 1.01569 (1,11,6) -4.25850
(1,10,7): (1,9,7) -20.0261 (1,10,6) -1.01569 (1,10,8) -7.99222 (1,11,7) -5.67994
(1,10,8): (1,9,8) -5.86947 (1,10,7) 7.99222 (1,10,9) -1.98682 (1,11,8) -0.400934
(1,10,9): (1,9,9) -1.74670 (1,10,8) 1.98682 (1,10,10) -0.499886 (1,11,9) 0.153973
(1,10,10): (1,9,10) -0.599954 (1,10,9) 0.499886 (1,11,10) 0.117329
(1,11,1): (1,10,1) -3.816498E-02 (1,11,2) 0.201276 (1,12,1) -3.757196E-02
(1,11,2): (1,10,2) -8.921755E-02 (1,11,1) -0.201276 (1,11,3) 0.603446 (1,12,2) -0.109842
(1,11,3): (1,10,3) -0.146026 (1,11,2) -0.603446 (1,11,4) 1.44366 (1,12,3) -0.363642
(1,11,4): (1,10,4) 0.402909 (1,11,3) -1.44366 (1,11,5) 2.61832 (1,12,4) -1.11221
(1,11,5): (1,10,5) 5.68035 (1,11,4) -2.61832 (1,11,6) 0.355111 (1,12,5) -2.80424
(1,11,6): (1,10,6) 4.25850 (1,11,5) -0.355111 (1,11,7) -0.353476 (1,12,6) -2.89359
(1,11,7): (1,10,7) 5.67994 (1,11,6) 0.353476 (1,11,8) -2.61288 (1,12,7) -2.80467
(1,11,8): (1,10,8) 0.400934 (1,11,7) 2.61288 (1,11,9) -1.42376 (1,12,8) -1.11404
(1,11,9): (1,10,9) -0.153973 (1,11,8) 1.42376 (1,11,10) -0.536665 (1,12,9) -0.370991
(1,11,10): (1,10,10) -0.117329 (1,11,9) 0.536665 (1,12,10) -0.137879
(1,12,1): (1,11,1) 3.757196E-02 (1,12,2) 0.128941 (1,13,1) -4.474189E-02
(1,12,2): (1,11,2) 0.109842 (1,12,1) -0.128941 (1,12,3) 0.349050 (1,13,2) -0.113768
(1,12,3): (1,11,3) 0.363642 (1,12,2) -0.349050 (1,12,4) 0.692737 (1,13,3) -0.310731
(1,12,4): (1,11,4) 1.11221 (1,12,3) -0.692737 (1,12,5) 0.929105 (1,13,4) -0.731394
(1,12,5): (1,11,5) 2.80424 (1,12,4) -0.929105 (1,12,6) 0.267604 (1,13,5) -1.34411
(1,12,6): (1,11,6) 2.89359 (1,12,5) -0.267604 (1,12,7) -0.266395 (1,13,6) -1.49872
(1,12,7): (1,11,7) 2.80467 (1,12,6) 0.266395 (1,12,8) -0.925143 (1,13,7) -1.34467
(1,12,8): (1,11,8) 1.11404 (1,12,7) 0.925143 (1,12,9) -0.678536 (1,13,8) -0.733819
(1,12,9): (1,11,9) 0.370991 (1,12,8) 0.678536 (1,12,10) -0.303175 (1,13,9) -0.320039
(1,12,10): (1,11,10) 0.137879 (1,12,9) 0.303175 (1,13,10) -0.146309
(1,13,1): (1,12,1) 4.474189E-02 (1,13,2) 5.990424E-02 (1,14,1) -2.693027E-02
(1,13,2): (1,12,2) 0.113768 (1,13,1) -5.990424E-02 (1,13,3) 0.152012 (1,14,2) -6.390667E-02
(1,13,3): (1,12,3) 0.310731 (1,13,2) -0.152012 (1,13,4) 0.272232 (1,14,3) -0.160344
(1,13,4): (1,12,4) 0.731394 (1,13,3) -0.272232 (1,13,5) 0.318801 (1,14,4) -0.339408
(1,13,5): (1,12,5) 1.34411 (1,13,4) -0.318801 (1,13,6) 0.114762 (1,14,5) -0.556936
(1,13,6): (1,12,6) 1.49872 (1,13,5) -0.114762 (1,13,7) -0.114112 (1,14,6) -0.632139
(1,13,7): (1,12,7) 1.34467 (1,13,6) 0.114112 (1,13,8) -0.316718 (1,14,7) -0.557301
(1,13,8): (1,12,8) 0.733819 (1,13,7) 0.316718 (1,13,9) -0.264978 (1,14,8) -0.340959
(1,13,9): (1,12,9) 0.320039 (1,13,8) 0.264978 (1,13,10) -0.129474 (1,14,9) -0.166117
(1,13,10): (1,12,10) 0.146309 (1,13,9) 0.129474 (1,14,10) -8.315337E-02
(1,14,1): (1,13,1) 2.693027E-02 (1,14,2) 2.292931E-02 (1,15,1) -1.081054E-02
(1,14,2): (1,13,2) 6.390667E-02 (1,14,1) -2.292931E-02 (1,14,3) 5.558317E-02 (1,15,2) -2.457195E-02
(1,14,3): (1,13,3) 0.160344 (1,14,2) -5.558317E-02 (1,14,4) 9.328665E-02 (1,15,3) -5.872869E-02
(1,14,4): (1,13,4) 0.339408 (1,14,3) -9.328665E-02 (1,14,5) 0.101779 (1,15,4) -0.117743
(1,14,5): (1,13,5) 0.556936 (1,14,4) -0.101779 (1,14,6) 3.993771E-02 (1,15,5) -0.183812
(1,14,6): (1,13,6) 0.632139 (1,14,5) -3.993771E-02 (1,14,7) -3.965202E-02 (1,15,6) -0.209210
(1,14,7): (1,13,7) 0.557301 (1,14,6) 3.965202E-02 (1,14,8) -0.100886 (1,15,7) -0.183967
(1,14,8): (1,13,8) 0.340959 (1,14,7) 0.100886 (1,14,9) -9.026688E-02 (1,15,8) -0.118393
(1,14,9): (1,13,9) 0.166117 (1,14,8) 9.026688E-02 (1,14,10) -4.654042E-02 (1,15,9) -6.108989E-02
(1,14,10): (1,13,10) 8.315337E-02 (1,14,9) 4.654042E-02 (1,15,10) -3.219925E-02
(1,15,1): (1,14,1) 1.081054E-02 (1,15,2) 9.168121E-03
(1,15,2): (1,14,2) 2.457195E-02 (1,15,1) -9.168121E-03 (1,15,3) 2.142751E-02
(1,15,3): (1,14,3) 5.872869E-02 (1,15,2) -2.142751E-02 (1,15,4) 3.428643E-02
(1,15,4): (1,14,4) 0.117743 (1,15,3) -3.428643E-02 (1,15,5) 3.576472E-02
(1,15,5): (1,14,5) 0.183812 (1,15,4) -3.576472E-02 (1,15,6) 1.458258E-02
(1,15,6): (1,14,6) 0.209210 (1,15,5) -1.458258E-02 (1,15,7) -1.445146E-02
(1,15,7): (1,14,7) 0.183967 (1,15,6) 1.445146E-02 (1,15,8) -3.536615E-02
(1,15,8): (1,14,8) 0.118393 (1,15,7) 3.536615E-02 (1,15,9) -3.298029E-02
(1,15,9): (1,14,9) 6.108989E-02 (1,15,8) 3.298029E-02 (1,15,10) -1.765398E-02
(1,15,10): (1,14,10) 3.219925E-02 (1,15,9) 1.765398E-02

 WEL PACKAGE (WEL-1) FLOW RATES   PERIOD      2   STEP       41
 ----------------------------------------------------------------------------------------
   NUMBER   CELLID                    RATE       NAME                                    
 ----------------------------------------------------------------------------------------
     1      (1,8,6)              -214.25582      WEL                                     
 ----------------------------------------------------------------------------------------




 DRN PACKAGE (DRN-0) FLOW RATES   PERIOD      2   STEP       41
 ----------------------------------------------------------------------------------------
   NUMBER   CELLID                    RATE       NAME                                    
 ----------------------------------------------------------------------------------------
     1      (1,1,1)               0.0000000      SURF                                    
     2      (1,1,2)               0.0000000      SURF                                    
     3      (1,1,3)               0.0000000      SURF                                    
     4      (1,1,4)               0.0000000      SURF                                    
     5      (1,1,5)               0.0000000      SURF                                    
     6      (1,1,6)               0.0000000      SURF                                    
     7      (1,1,7)               0.0000000      SURF                                    
     8      (1,1,8)               0.0000000      SURF                                    
     9      (1,1,9)               0.0000000      SURF                                    
     10     (1,1,10)              0.0000000      SURF                                    
     11     (1,2,1)               0.0000000      SURF                                    
     12     (1,2,2)               0.0000000      SURF                                    
     13     (1,2,3)               0.0000000      SURF                                    
     14     (1,2,4)               0.0000000      SURF                                    
     15     (1,2,5)               0.0000000      SURF                                    
     16     (1,2,6)               0.0000000      SURF                                    
     17     (1,2,7)               0.0000000      SURF                                    
     18     (1,2,8)               0.0000000      SURF                                    
     19     (1,2,9)               0.0000000      SURF                                    
     20     (1,2,10)              0.0000000      SURF                                    
     21     (1,3,1)               0.0000000      SURF                                    
     22     (1,3,2)               0.0000000      SURF                                    
     23     (1,3,3)               0.0000000      SURF                                    
     24     (1,3,4)               0.0000000      SURF                                    
     25     (1,3,5)               0.0000000      SURF                                    
     26     (1,3,6)               0.0000000      SURF                                    
     27     (1,3,7)               0.0000000      SURF                                    
     28     (1,3,8)               0.0000000      SURF                                    
     29     (1,3,9)               0.0000000      SURF                                    
     30     (1,3,10)              0.0000000      SURF                                    
     31     (1,4,1)               0.0000000      SURF                                    
     32     (1,4,2)               0.0000000      SURF                                    
     33     (1,4,3)               0.0000000      SURF                                    
     34     (1,4,4)               0.0000000      SURF                                    
     35     (1,4,5)               0.0000000      SURF                                    
     36     (1,4,6)               0.0000000      SURF                                    
     37     (1,4,7)               0.0000000      SURF                                    
     38     (1,4,8)               0.0000000      SURF                                    
     39     (1,4,9)               0.0000000      SURF                                    
     40     (1,4,10)              0.0000000      SURF                                    
     41     (1,5,1)               0.0000000      SURF                                    
     42     (1,5,2)               0.0000000      SURF                                    
     43     (1,5,3)               0.0000000      SURF                                    
     44     (1,5,4)               0.0000000      SURF                                    
     45     (1,5,5)               0.0000000      SURF                                    
     46     (1,5,6)               0.0000000      SURF                                    
     47     (1,5,7)               0.0000000      SURF                                    
     48     (1,5,8)               0.0000000      SURF                                    
     49     (1,5,9)               0.0000000      SURF                                    
     50     (1,5,10)              0.0000000      SURF                                    
     51     (1,6,1)               0.0000000      SURF                                    
     52     (1,6,2)               0.0000000      SURF                                    
     53     (1,6,3)               0.0000000      SURF                                    
     54     (1,6,4)               0.0000000      SURF                                    
     55     (1,6,5)               0.0000000      SURF                                    
     56     (1,6,6)               0.0000000      SURF                                    
     57     (1,6,7)              -9.03673936E-09 SURF                                    
     58     (1,6,8)               0.0000000      SURF                                    
     59     (1,6,9)               0.0000000      SURF                                    
     60     (1,6,10)              0.0000000      SURF                                    
     61     (1,7,1)               0.0000000      SURF                                    
     62     (1,7,2)               0.0000000      SURF                                    
     63     (1,7,3)               0.0000000      SURF                                    
     64     (1,7,4)               0.0000000      SURF                                    
     65     (1,7,5)               0.0000000      SURF                                    
     66     (1,7,6)               0.0000000      SURF                                    
     67     (1,7,7)               0.0000000      SURF                                    
     68     (1,7,8)               0.0000000      SURF                                    
     69     (1,7,9)               0.0000000      SURF                                    
     70     (1,7,10)              0.0000000      SURF                                    
     71     (1,8,1)               0.0000000      SURF                                    
     72     (1,8,2)               0.0000000      SURF                                    
     73     (1,8,3)               0.0000000      SURF                                    
     74     (1,8,4)               0.0000000      SURF                                    
     75     (1,8,5)               0.0000000      SURF                                    
     76     (1,8,6)               0.0000000      SURF                                    
     77     (1,8,7)               0.0000000      SURF                                    
     78     (1,8,8)               0.0000000      SURF                                    
     79     (1,8,9)               0.0000000      SURF                                    
     80     (1,8,10)              0.0000000      SURF                                    
     81     (1,9,1)               0.0000000      SURF                                    
     82     (1,9,2)               0.0000000      SURF                                    
     83     (1,9,3)               0.0000000      SURF                                    
     84     (1,9,4)               0.0000000      SURF                                    
     85     (1,9,5)               0.0000000      SURF                                    
     86     (1,9,6)               0.0000000      SURF                                    
     87     (1,9,7)               0.0000000      SURF                                    
     88     (1,9,8)               0.0000000      SURF                                    
     89     (1,9,9)               0.0000000      SURF                                    
     90     (1,9,10)              0.0000000      SURF                                    
     91     (1,10,1)              0.0000000      SURF                                    
     92     (1,10,2)              0.0000000      SURF                                    
     93     (1,10,3)              0.0000000      SURF                                    
     94     (1,10,4)              0.0000000      SURF                                    
     95     (1,10,5)              0.0000000      SURF                                    
     96     (1,10,6)              0.0000000      SURF                                    
     97     (1,10,7)             -3.60130798E-07 SURF                                    
     98     (1,10,8)              0.0000000      SURF                                    
     99     (1,10,9)              0.0000000      SURF                                    
    100     (1,10,10)             0.0000000      SURF                                    
    101     (1,11,1)              0.0000000      SURF                                    
    102     (1,11,2)              0.0000000      SURF                                    
    103     (1,11,3)              0.0000000      SURF                                    
    104     (1,11,4)              0.0000000      SURF                                    
    105     (1,11,5)              0.0000000      SURF                                    
    106     (1,11,6)              0.0000000      SURF                                    
    107     (1,11,7)              0.0000000      SURF                                    
    108     (1,11,8)              0.0000000      SURF                                    
    109     (1,11,9)              0.0000000      SURF                                    
    110     (1,11,10)             0.0000000      SURF                                    
    111     (1,12,1)              0.0000000      SURF                                    
    112     (1,12,2)              0.0000000      SURF                                    
    113     (1,12,3)              0.0000000      SURF                                    
    114     (1,12,4)              0.0000000      SURF                                    
    115     (1,12,5)              0.0000000      SURF                                    
    116     (1,12,6)              0.0000000      SURF                                    
    117     (1,12,7)              0.0000000      SURF                                    
    118     (1,12,8)              0.0000000      SURF                                    
    119     (1,12,9)              0.0000000      SURF                                    
    120     (1,12,10)             0.0000000      SURF                                    
    121     (1,13,1)              0.0000000      SURF                                    
    122     (1,13,2)              0.0000000      SURF                                    
    123     (1,13,3)              0.0000000      SURF                                    
    124     (1,13,4)              0.0000000      SURF                                    
    125     (1,13,5)              0.0000000      SURF                                    
    126     (1,13,6)              0.0000000      SURF                                    
    127     (1,13,7)              0.0000000      SURF                                    
    128     (1,13,8)              0.0000000      SURF                                    
    129     (1,13,9)              0.0000000      SURF                                    
    130     (1,13,10)             0.0000000      SURF                                    
    131     (1,14,1)              0.0000000      SURF                                    
    132     (1,14,2)              0.0000000      SURF                                    
    133     (1,14,3)              0.0000000      SURF                                    
    134     (1,14,4)              0.0000000      SURF                                    
    135     (1,14,5)              0.0000000      SURF                                    
    136     (1,14,6)              0.0000000      SURF                                    
    137     (1,14,7)              0.0000000      SURF                                    
    138     (1,14,8)              0.0000000      SURF                                    
    139     (1,14,9)              0.0000000      SURF                                    
    140     (1,14,10)             0.0000000      SURF                                    
    141     (1,15,1)              0.0000000      SURF                                    
    142     (1,15,2)              0.0000000      SURF                                    
    143     (1,15,3)              0.0000000      SURF                                    
    144     (1,15,4)              0.0000000      SURF                                    
    145     (1,15,5)              0.0000000      SURF                                    
    146     (1,15,6)              0.0000000      SURF                                    
    147     (1,15,7)              0.0000000      SURF                                    
    148     (1,15,8)              0.0000000      SURF                                    
    149     (1,15,9)              0.0000000      SURF                                    
    150     (1,15,10)             0.0000000      SURF                                    
 ----------------------------------------------------------------------------------------




 API PACKAGE (MAR) FLOW RATES   PERIOD      2   STEP       41
 -----------------------------------------------
   NUMBER   CELLID                    RATE      
 -----------------------------------------------
     1      (1,6,5)               34.492917     
     2      (1,6,6)               34.492917     
     3      (1,6,7)               34.492917     
     4      (1,10,5)              34.713926     
     5      (1,10,6)              34.713926     
     6      (1,10,7)              34.713926     
 -----------------------------------------------



1
  HEAD IN LAYER   1 AT END OF TIME STEP  41 IN STRESS PERIOD    2
  ---------------------------------------------------------------------------

            1           2           3           4           5           6           7           8           9          10
 ........................................................................................................................
   1   1.2346E-03  2.4683E-03  5.2440E-03  9.5094E-03  1.3831E-02  1.5595E-02  1.3854E-02  9.5976E-03  5.5316E-03  3.2963E-03
   2   2.7039E-03  5.5989E-03  1.2337E-02  2.3171E-02  3.4630E-02  3.9144E-02  3.4678E-02  2.3356E-02  1.2956E-02  7.4361E-03
   3   6.2192E-03  1.3383E-02  3.0785E-02  6.0566E-02  9.4303E-02  0.1065      9.4406E-02  6.0975E-02  3.2185E-02  1.7661E-02
   4   1.1827E-02  2.6579E-02  6.4639E-02  0.1365      0.2295      0.2564      0.2297      0.1373      6.7245E-02  3.4802E-02
   5   1.6504E-02  3.8854E-02  0.1022      0.2456      0.4944      0.5279      0.4946      0.2466      0.1058      5.0413E-02
   6   1.2653E-02  2.9670E-02  8.6500E-02  0.2807      0.9998      0.9056       1.000      0.2815      8.9276E-02  3.8391E-02
   7  -3.8607E-03 -2.0609E-02 -8.6919E-02 -0.2921     -0.8175      -2.062     -0.8175     -0.2920     -8.7230E-02 -2.4289E-02
   8  -1.5216E-02 -5.5684E-02 -0.2140     -0.7521      -2.521      -9.222      -2.521     -0.7525     -0.2165     -6.7896E-02
   9  -6.1897E-03 -2.4244E-02 -9.2332E-02 -0.2978     -0.8206      -2.064     -0.8206     -0.2979     -9.3242E-02 -2.9364E-02
  10   8.9976E-03  2.3978E-02  7.8193E-02  0.2730      0.9999      0.9077       1.000      0.2734      8.0041E-02  3.0449E-02
  11   1.2809E-02  3.2871E-02  9.2661E-02  0.2337      0.4835      0.5173      0.4836      0.2344      9.5293E-02  4.2133E-02
  12   9.0569E-03  2.1923E-02  5.6631E-02  0.1250      0.2160      0.2421      0.2161      0.1256      5.8544E-02  2.8403E-02
  13   4.5867E-03  1.0571E-02  2.5733E-02  5.2813E-02  8.4426E-02  9.5794E-02  8.4491E-02  5.3084E-02  2.6726E-02  1.3813E-02
  14   1.8949E-03  4.1869E-03  9.7398E-03  1.9051E-02  2.9199E-02  3.3180E-02  2.9228E-02  1.9168E-02  1.0159E-02  5.5096E-03
  15   8.1409E-04  1.7307E-03  3.8727E-03  7.2988E-03  1.0871E-02  1.2328E-02  1.0884E-02  7.3517E-03  4.0561E-03  2.2914E-03

 HEAD WILL BE SAVED ON UNIT 1100 AT END OF TIME STEP   41, STRESS PERIOD    2


  VOLUME BUDGET FOR ENTIRE MODEL AT END OF TIME STEP   41, STRESS PERIOD   2
  ---------------------------------------------------------------------------------------------------

     CUMULATIVE VOLUME      L**3       RATES FOR THIS TIME STEP      L**3/T          PACKAGE NAME    
     ------------------                 ------------------------                     ----------------

           IN:                                      IN:
           ---                                      ---
              STO-SS =          20.3341                STO-SS =       1.7333E-02     STORAGE                          
              STO-SY =       51678.4079                STO-SY =          38.1453     STORAGE                          
                 WEL =           0.0000                   WEL =           0.0000     WEL-1                            
                 DRN =           0.0000                   DRN =           0.0000     DRN-0                            
                 API =       82489.5056                   API =         207.6205     MAR                              
                 CHD =       2.0279E-08                   CHD =           0.0000     CHD_0                            

            TOTAL IN =      134188.2476              TOTAL IN =         245.7832

          OUT:                                     OUT:
          ----                                     ----
              STO-SS =          16.6008                STO-SS =       1.5984E-02     STORAGE                          
              STO-SY =       32330.8783                STO-SY =          31.5114     STORAGE                          
                 WEL =      101840.7684                   WEL =         214.2558     WEL-1                            
                 DRN =       1.3336E-04                   DRN =       3.6917E-07     DRN-0                            
                 API =           0.0000                   API =           0.0000     MAR                              
                 CHD =       2.0705E-08                   CHD =           0.0000     CHD_0                            

           TOTAL OUT =      134188.2476             TOTAL OUT =         245.7832

            IN - OUT =      -1.0300E-06              IN - OUT =      -3.0151E-09

 PERCENT DISCREPANCY =          -0.00     PERCENT DISCREPANCY =          -0.00




         TIME SUMMARY AT END OF TIME STEP   41 IN STRESS PERIOD    2
                    SECONDS     MINUTES      HOURS       DAYS        YEARS
                    -----------------------------------------------------------
   TIME STEP LENGTH 8.64000E+05  14400.      240.00      10.000     2.73785E-02
 STRESS PERIOD TIME 3.54240E+07 5.90400E+05  9840.0      410.00      1.1225    
         TOTAL TIME 3.55104E+07 5.91840E+05  9864.0      411.00      1.1253    


end timestep


start timestep kper="2" kstp="42" mode="normal"

 UBDSV1 SAVING           STO-SS ON UNIT   1099 AT TIME STEP     42, STRESS PERIOD      2
 UBDSV1 SAVING           STO-SY ON UNIT   1099 AT TIME STEP     42, STRESS PERIOD      2
 UBDSV1 SAVING     FLOW-JA-FACE ON UNIT   1099 AT TIME STEP     42, STRESS PERIOD      2
 UBDSV06 SAVING       DATA-SPDIS IN MODEL GWF              PACKAGE NPF             CONNECTED TO MODEL GWF              PACKAGE NPF              ON UNIT   1099 AT TIME STEP     42, STRESS PERIOD      2
 UBDSV06 SAVING              WEL IN MODEL GWF              PACKAGE GWF             CONNECTED TO MODEL GWF              PACKAGE WEL-1            ON UNIT   1099 AT TIME STEP     42, STRESS PERIOD      2
 UBDSV06 SAVING              DRN IN MODEL GWF              PACKAGE GWF             CONNECTED TO MODEL GWF              PACKAGE DRN-0            ON UNIT   1099 AT TIME STEP     42, STRESS PERIOD      2
 UBDSV06 SAVING              API IN MODEL GWF              PACKAGE GWF             CONNECTED TO MODEL GWF              PACKAGE MAR              ON UNIT   1099 AT TIME STEP     42, STRESS PERIOD      2
 UBDSV06 SAVING              CHD IN MODEL GWF              PACKAGE GWF             CONNECTED TO MODEL GWF              PACKAGE CHD_0            ON UNIT   1099 AT TIME STEP     42, STRESS PERIOD      2

    CALCULATED INTERCELL FLOW FOR PERIOD 2 STEP 42
(1,1,1): (1,1,2) 1.336387E-02 (1,2,1) 1.585062E-02
(1,1,2): (1,1,1) -1.336387E-02 (1,1,3) 2.978798E-02 (1,2,2) 3.326344E-02
(1,1,3): (1,1,2) -2.978798E-02 (1,1,4) 4.532635E-02 (1,2,3) 7.446481E-02
(1,1,4): (1,1,3) -4.532635E-02 (1,1,5) 4.558875E-02 (1,2,4) 0.142276
(1,1,5): (1,1,4) -4.558875E-02 (1,1,6) 1.859115E-02 (1,2,5) 0.215651
(1,1,6): (1,1,5) -1.859115E-02 (1,1,7) -1.832211E-02 (1,2,6) 0.243948
(1,1,7): (1,1,6) 1.832211E-02 (1,1,8) -4.484580E-02 (1,2,7) 0.215929
(1,1,8): (1,1,7) 4.484580E-02 (1,1,9) -4.309213E-02 (1,2,8) 0.143357
(1,1,9): (1,1,8) 4.309213E-02 (1,1,10) -2.383679E-02 (1,2,9) 7.808861E-02
(1,1,10): (1,1,9) 2.383679E-02 (1,2,10) 4.408980E-02
(1,2,1): (1,1,1) -1.585062E-02 (1,2,2) 3.077625E-02 (1,3,1) 3.735940E-02
(1,2,2): (1,1,2) -3.326344E-02 (1,2,1) -3.077625E-02 (1,2,3) 7.098793E-02 (1,3,2) 8.151973E-02
(1,2,3): (1,1,3) -7.446481E-02 (1,2,2) -7.098793E-02 (1,2,4) 0.113118 (1,3,3) 0.191202
(1,2,4): (1,1,4) -0.142276 (1,2,3) -0.113118 (1,2,5) 0.118893 (1,3,4) 0.385442
(1,2,5): (1,1,5) -0.215651 (1,2,4) -0.118893 (1,2,6) 4.683301E-02 (1,3,5) 0.614075
(1,2,6): (1,1,6) -0.243948 (1,2,5) -4.683301E-02 (1,2,7) -4.628628E-02 (1,3,6) 0.693479
(1,2,7): (1,1,7) -0.215929 (1,2,6) 4.628628E-02 (1,2,8) -0.117347 (1,3,7) 0.614704
(1,2,8): (1,1,8) -0.143357 (1,2,7) 0.117347 (1,2,9) -0.108338 (1,3,8) 0.387906
(1,2,9): (1,1,9) -7.808861E-02 (1,2,8) 0.108338 (1,2,10) -5.782874E-02 (1,3,9) 0.199614
(1,2,10): (1,1,10) -4.408980E-02 (1,2,9) 5.782874E-02 (1,3,10) 0.107354
(1,3,1): (1,2,1) -3.735940E-02 (1,3,2) 7.493368E-02 (1,4,1) 5.837492E-02
(1,3,2): (1,2,2) -8.151973E-02 (1,3,1) -7.493368E-02 (1,3,3) 0.180659 (1,4,2) 0.135576
(1,3,3): (1,2,3) -0.191202 (1,3,2) -0.180659 (1,3,4) 0.307209 (1,4,3) 0.345582
(1,3,4): (1,2,4) -0.385442 (1,3,3) -0.307209 (1,3,5) 0.346930 (1,4,4) 0.776404
(1,3,5): (1,2,5) -0.614075 (1,3,4) -0.346930 (1,3,6) 0.125800 (1,4,5) 1.39057
(1,3,6): (1,2,6) -0.693479 (1,3,5) -0.125800 (1,3,7) -0.124628 (1,4,6) 1.54512
(1,3,7): (1,2,7) -0.614704 (1,3,6) 0.124628 (1,3,8) -0.343545 (1,4,7) 1.39150
(1,3,8): (1,2,8) -0.387906 (1,3,7) 0.343545 (1,3,9) -0.296460 (1,4,8) 0.780076
(1,3,9): (1,2,9) -0.199614 (1,3,8) 0.296460 (1,3,10) -0.150043 (1,4,9) 0.358409
(1,3,10): (1,2,10) -0.107354 (1,3,9) 0.150043 (1,4,10) 0.176594
(1,4,1): (1,3,1) -5.837492E-02 (1,4,2) 0.152148 (1,5,1) 4.667568E-02
(1,4,2): (1,3,2) -0.135576 (1,4,1) -0.152148 (1,4,3) 0.390758 (1,5,2) 0.121633
(1,4,3): (1,3,3) -0.345582 (1,4,2) -0.390758 (1,4,4) 0.737871 (1,5,3) 0.374604
(1,4,4): (1,3,4) -0.776404 (1,4,3) -0.737871 (1,4,5) 0.958592 (1,5,4) 1.10827
(1,4,5): (1,3,5) -1.39057 (1,4,4) -0.958592 (1,4,6) 0.278531 (1,5,5) 2.76997
(1,4,6): (1,3,6) -1.54512 (1,4,5) -0.278531 (1,4,7) -0.276433 (1,5,6) 2.84793
(1,4,7): (1,3,7) -1.39150 (1,4,6) 0.276433 (1,4,8) -0.952439 (1,5,7) 2.77070
(1,4,8): (1,3,8) -0.780076 (1,4,7) 0.952439 (1,4,9) -0.717874 (1,5,8) 1.11104
(1,4,9): (1,3,9) -0.358409 (1,4,8) 0.717874 (1,4,10) -0.331811 (1,5,9) 0.384430
(1,4,10): (1,3,10) -0.176594 (1,4,9) 0.331811 (1,5,10) 0.154982
(1,5,1): (1,4,1) -4.667568E-02 (1,5,2) 0.227183 (1,6,1) -4.353304E-02
(1,5,2): (1,4,2) -0.121633 (1,5,1) -0.227183 (1,5,3) 0.644395 (1,6,2) -0.102889
(1,5,3): (1,4,3) -0.374604 (1,5,2) -0.644395 (1,5,4) 1.47408 (1,6,3) -0.181758
(1,5,4): (1,4,4) -1.10827 (1,5,3) -1.47408 (1,5,5) 2.61803 (1,6,4) 0.324894
(1,5,5): (1,4,5) -2.76997 (1,5,4) -2.61803 (1,5,6) 0.354938 (1,6,5) 5.53212
(1,5,6): (1,4,6) -2.84793 (1,5,5) -0.354938 (1,5,7) -0.352119 (1,6,6) 4.09560
(1,5,7): (1,4,7) -2.77070 (1,5,6) 0.352119 (1,5,8) -2.60972 (1,6,7) 5.53165
(1,5,8): (1,4,8) -1.11104 (1,5,7) 2.60972 (1,5,9) -1.44679 (1,6,8) 0.322598
(1,5,9): (1,4,9) -0.384430 (1,5,8) 1.44679 (1,5,10) -0.561656 (1,6,9) -0.190868
(1,5,10): (1,4,10) -0.154982 (1,5,9) 0.561656 (1,6,10) -0.135010
(1,6,1): (1,5,1) 4.353304E-02 (1,6,2) 0.167755 (1,7,1) -0.173397
(1,6,2): (1,5,2) 0.102889 (1,6,1) -0.167755 (1,6,3) 0.565171 (1,7,2) -0.520630
(1,6,3): (1,5,3) 0.181758 (1,6,2) -0.565171 (1,6,4) 1.98843 (1,7,3) -1.78395
(1,6,4): (1,5,4) -0.324894 (1,6,3) -1.98843 (1,6,5) 7.92792 (1,7,4) -5.95165
(1,6,5): (1,5,5) -5.53212 (1,6,4) -7.92792 (1,6,6) -1.03058 (1,7,5) -20.0914
(1,6,6): (1,5,6) -4.09560 (1,6,5) 1.03058 (1,6,7) 1.03297 (1,7,6) -32.4484
(1,6,7): (1,5,7) -5.53165 (1,6,6) -1.03297 (1,6,8) -7.92120 (1,7,7) -20.0934
(1,6,8): (1,5,8) -0.322598 (1,6,7) 7.92120 (1,6,9) -1.96794 (1,7,8) -5.95989
(1,6,9): (1,5,9) 0.190868 (1,6,8) 1.96794 (1,6,10) -0.505598 (1,7,9) -1.81743
(1,6,10): (1,5,10) 0.135010 (1,6,9) 0.505598 (1,7,10) -0.650996
(1,7,1): (1,6,1) 0.173397 (1,7,2) -0.178581 (1,8,1) -0.117708
(1,7,2): (1,6,2) 0.520630 (1,7,1) 0.178581 (1,7,3) -0.687797 (1,8,2) -0.358066
(1,7,3): (1,6,3) 1.78395 (1,7,2) 0.687797 (1,7,4) -2.06777 (1,8,3) -1.27551
(1,7,4): (1,6,4) 5.95165 (1,7,3) 2.06777 (1,7,5) -5.10983 (1,8,4) -4.48845
(1,7,5): (1,6,5) 20.0914 (1,7,4) 5.10983 (1,7,6) -11.3971 (1,8,5) -15.6478
(1,7,6): (1,6,6) 32.4484 (1,7,5) 11.3971 (1,7,7) 11.3977 (1,8,6) -56.7387
(1,7,7): (1,6,7) 20.0934 (1,7,6) -11.3977 (1,7,8) 5.11008 (1,8,7) -15.6491
(1,7,8): (1,6,8) 5.95989 (1,7,7) -5.11008 (1,7,9) 2.06268 (1,8,8) -4.49404
(1,7,9): (1,6,9) 1.81743 (1,7,8) -2.06268 (1,7,10) 0.650088 (1,8,9) -1.29805
(1,7,10): (1,6,10) 0.650996 (1,7,9) -0.650088 (1,8,10) -0.445777
(1,8,1): (1,7,1) 0.117708 (1,8,2) -0.419086 (1,9,1) 9.428311E-02
(1,8,2): (1,7,2) 0.358066 (1,8,1) 0.419086 (1,8,3) -1.60830 (1,9,2) 0.322236
(1,8,3): (1,7,3) 1.27551 (1,8,2) 1.60830 (1,8,4) -5.30743 (1,9,3) 1.22308
(1,8,4): (1,7,4) 4.48845 (1,8,3) 5.30743 (1,8,5) -16.3488 (1,9,4) 4.43341
(1,8,5): (1,7,5) 15.6478 (1,8,4) 16.3488 (1,8,6) -49.9633 (1,9,5) 15.6174
(1,8,6): (1,7,6) 56.7387 (1,8,5) 49.9633 (1,8,7) 49.9623 (1,9,6) 56.7135
(1,8,7): (1,7,7) 15.6491 (1,8,6) -49.9623 (1,8,8) 16.3441 (1,9,7) 15.6181
(1,8,8): (1,7,8) 4.49404 (1,8,7) -16.3441 (1,8,9) 5.28432 (1,9,8) 4.43678
(1,8,9): (1,7,9) 1.29805 (1,8,8) -5.28432 (1,8,10) 1.50413 (1,9,9) 1.23952
(1,8,10): (1,7,10) 0.445777 (1,8,9) -1.50413 (1,9,10) 0.395610
(1,9,1): (1,8,1) -9.428311E-02 (1,9,2) -0.190912 (1,10,1) 0.159842
(1,9,2): (1,8,2) -0.322236 (1,9,1) 0.190912 (1,9,3) -0.703966 (1,10,2) 0.499764
(1,9,3): (1,8,3) -1.22308 (1,9,2) 0.703966 (1,9,4) -2.06861 (1,10,3) 1.75381
(1,9,4): (1,8,4) -4.43341 (1,9,3) 2.06861 (1,9,5) -5.08147 (1,10,4) 5.92624
(1,9,5): (1,8,5) -15.6174 (1,9,4) 5.08147 (1,9,6) -11.3834 (1,10,5) 20.1233
(1,9,6): (1,8,6) -56.7135 (1,9,5) 11.3834 (1,9,7) 11.3834 (1,10,6) 32.4946
(1,9,7): (1,8,7) -15.6181 (1,9,6) -11.3834 (1,9,8) 5.08014 (1,10,7) 20.1248
(1,9,8): (1,8,8) -4.43678 (1,9,7) -5.08014 (1,9,9) 2.05953 (1,10,8) 5.93314
(1,9,9): (1,8,9) -1.23952 (1,9,8) -2.05953 (1,9,10) 0.657967 (1,10,9) 1.78369
(1,9,10): (1,8,10) -0.395610 (1,9,9) -0.657967 (1,10,10) 0.621741
(1,10,1): (1,9,1) -0.159842 (1,10,2) 0.148186 (1,11,1) 4.283579E-02
(1,10,2): (1,9,2) -0.499764 (1,10,1) -0.148186 (1,10,3) 0.540109 (1,11,2) 9.948234E-02
(1,10,3): (1,9,3) -1.75381 (1,10,2) -0.540109 (1,10,4) 1.99317 (1,11,3) 0.168492
(1,10,4): (1,9,4) -5.92624 (1,10,3) -1.99317 (1,10,5) 8.01121 (1,11,4) -0.366266
(1,10,5): (1,9,5) -20.1233 (1,10,4) -8.01121 (1,10,6) -1.00954 (1,11,5) -5.64815
(1,10,6): (1,9,6) -32.4946 (1,10,5) 1.00954 (1,10,7) 1.01089 (1,11,6) -4.22901
(1,10,7): (1,9,7) -20.1248 (1,10,6) -1.01089 (1,10,8) -8.00701 (1,11,7) -5.64766
(1,10,8): (1,9,8) -5.93314 (1,10,7) 8.00701 (1,10,9) -1.97895 (1,11,8) -0.364005
(1,10,9): (1,9,9) -1.78369 (1,10,8) 1.97895 (1,10,10) -0.493627 (1,11,9) 0.177475
(1,10,10): (1,9,10) -0.621741 (1,10,9) 0.493627 (1,11,10) 0.130893
(1,11,1): (1,10,1) -4.283579E-02 (1,11,2) 0.204891 (1,12,1) -3.758637E-02
(1,11,2): (1,10,2) -9.948234E-02 (1,11,1) -0.204891 (1,11,3) 0.609415 (1,12,2) -0.108867
(1,11,3): (1,10,3) -0.168492 (1,11,2) -0.609415 (1,11,4) 1.45040 (1,12,3) -0.359849
(1,11,4): (1,10,4) 0.366266 (1,11,3) -1.45040 (1,11,5) 2.62668 (1,12,4) -1.10422
(1,11,5): (1,10,5) 5.64815 (1,11,4) -2.62668 (1,11,6) 0.357714 (1,12,5) -2.79512
(1,11,6): (1,10,6) 4.22901 (1,11,5) -0.357714 (1,11,7) -0.355915 (1,12,6) -2.88383
(1,11,7): (1,10,7) 5.64766 (1,11,6) 0.355915 (1,11,8) -2.62083 (1,12,7) -2.79557
(1,11,8): (1,10,8) 0.364005 (1,11,7) 2.62083 (1,11,9) -1.42945 (1,12,8) -1.10610
(1,11,9): (1,10,9) -0.177475 (1,11,8) 1.42945 (1,11,10) -0.540372 (1,12,9) -0.367258
(1,11,10): (1,10,10) -0.130893 (1,11,9) 0.540372 (1,12,10) -0.136776
(1,12,1): (1,11,1) 3.758637E-02 (1,12,2) 0.133543 (1,13,1) -4.690135E-02
(1,12,2): (1,11,2) 0.108867 (1,12,1) -0.133543 (1,12,3) 0.357819 (1,13,2) -0.117319
(1,12,3): (1,11,3) 0.359849 (1,12,2) -0.357819 (1,12,4) 0.703579 (1,13,3) -0.316670
(1,12,4): (1,11,4) 1.10422 (1,12,3) -0.703579 (1,12,5) 0.938335 (1,13,4) -0.739879
(1,12,5): (1,11,5) 2.79512 (1,12,4) -0.938335 (1,12,6) 0.270825 (1,13,5) -1.35468
(1,12,6): (1,11,6) 2.88383 (1,12,5) -0.270825 (1,12,7) -0.269471 (1,13,6) -1.50982
(1,12,7): (1,11,7) 2.79557 (1,12,6) 0.269471 (1,12,8) -0.933997 (1,13,7) -1.35530
(1,12,8): (1,11,8) 1.10610 (1,12,7) 0.933997 (1,12,9) -0.688341 (1,13,8) -0.742495
(1,12,9): (1,11,9) 0.367258 (1,12,8) 0.688341 (1,12,10) -0.309499 (1,13,9) -0.326528
(1,12,10): (1,11,10) 0.136776 (1,12,9) 0.309499 (1,13,10) -0.151220
(1,13,1): (1,12,1) 4.690135E-02 (1,13,2) 6.311433E-02 (1,14,1) -2.890140E-02
(1,13,2): (1,12,2) 0.117319 (1,13,1) -6.311433E-02 (1,13,3) 0.158387 (1,14,2) -6.740219E-02
(1,13,3): (1,12,3) 0.316670 (1,13,2) -0.158387 (1,13,4) 0.280518 (1,14,3) -0.166803
(1,13,4): (1,12,4) 0.739879 (1,13,3) -0.280518 (1,13,5) 0.325960 (1,14,4) -0.349601
(1,13,5): (1,12,5) 1.35468 (1,13,4) -0.325960 (1,13,6) 0.117476 (1,14,5) -0.570259
(1,13,6): (1,12,6) 1.50982 (1,13,5) -0.117476 (1,13,7) -0.116736 (1,14,6) -0.646590
(1,13,7): (1,12,7) 1.35530 (1,13,6) 0.116736 (1,13,8) -0.323640 (1,14,7) -0.570669
(1,13,8): (1,12,8) 0.742495 (1,13,7) 0.323640 (1,13,9) -0.272594 (1,14,8) -0.351314
(1,13,9): (1,12,9) 0.326528 (1,13,8) 0.272594 (1,13,10) -0.134220 (1,14,9) -0.173064
(1,13,10): (1,12,10) 0.151220 (1,13,9) 0.134220 (1,14,10) -8.792231E-02
(1,14,1): (1,13,1) 2.890140E-02 (1,14,2) 2.461519E-02 (1,15,1) -1.180335E-02
(1,14,2): (1,13,2) 6.740219E-02 (1,14,1) -2.461519E-02 (1,14,3) 5.899444E-02 (1,15,2) -2.636625E-02
(1,14,3): (1,13,3) 0.166803 (1,14,2) -5.899444E-02 (1,14,4) 9.784470E-02 (1,15,3) -6.212945E-02
(1,14,4): (1,13,4) 0.349601 (1,14,3) -9.784470E-02 (1,14,5) 0.105829 (1,15,4) -0.123257
(1,14,5): (1,13,5) 0.570259 (1,14,4) -0.105829 (1,14,6) 4.153788E-02 (1,15,5) -0.191166
(1,14,6): (1,13,6) 0.646590 (1,14,5) -4.153788E-02 (1,14,7) -4.120620E-02 (1,15,6) -0.217274
(1,14,7): (1,13,7) 0.570669 (1,14,6) 4.120620E-02 (1,14,8) -0.104815 (1,15,7) -0.191343
(1,14,8): (1,13,8) 0.351314 (1,14,7) 0.104815 (1,14,9) -9.448201E-02 (1,15,8) -0.123985
(1,14,9): (1,13,9) 0.173064 (1,14,8) 9.448201E-02 (1,14,10) -4.911083E-02 (1,15,9) -6.473372E-02
(1,14,10): (1,13,10) 8.792231E-02 (1,14,9) 4.911083E-02 (1,15,10) -3.463801E-02
(1,15,1): (1,14,1) 1.180335E-02 (1,15,2) 1.005254E-02
(1,15,2): (1,14,2) 2.636625E-02 (1,15,1) -1.005254E-02 (1,15,3) 2.323237E-02
(1,15,3): (1,14,3) 6.212945E-02 (1,15,2) -2.323237E-02 (1,15,4) 3.673284E-02
(1,15,4): (1,14,4) 0.123257 (1,15,3) -3.673284E-02 (1,15,5) 3.797736E-02
(1,15,5): (1,14,5) 0.191166 (1,15,4) -3.797736E-02 (1,15,6) 1.547539E-02
(1,15,6): (1,14,6) 0.217274 (1,15,5) -1.547539E-02 (1,15,7) -1.532007E-02
(1,15,7): (1,14,7) 0.191343 (1,15,6) 1.532007E-02 (1,15,8) -3.751530E-02
(1,15,8): (1,14,8) 0.123985 (1,15,7) 3.751530E-02 (1,15,9) -3.524762E-02
(1,15,9): (1,14,9) 6.473372E-02 (1,15,8) 3.524762E-02 (1,15,10) -1.901981E-02
(1,15,10): (1,14,10) 3.463801E-02 (1,15,9) 1.901981E-02

 WEL PACKAGE (WEL-1) FLOW RATES   PERIOD      2   STEP       42
 ----------------------------------------------------------------------------------------
   NUMBER   CELLID                    RATE       NAME                                    
 ----------------------------------------------------------------------------------------
     1      (1,8,6)              -213.72543      WEL                                     
 ----------------------------------------------------------------------------------------




 DRN PACKAGE (DRN-0) FLOW RATES   PERIOD      2   STEP       42
 ----------------------------------------------------------------------------------------
   NUMBER   CELLID                    RATE       NAME                                    
 ----------------------------------------------------------------------------------------
     1      (1,1,1)               0.0000000      SURF                                    
     2      (1,1,2)               0.0000000      SURF                                    
     3      (1,1,3)               0.0000000      SURF                                    
     4      (1,1,4)               0.0000000      SURF                                    
     5      (1,1,5)               0.0000000      SURF                                    
     6      (1,1,6)               0.0000000      SURF                                    
     7      (1,1,7)               0.0000000      SURF                                    
     8      (1,1,8)               0.0000000      SURF                                    
     9      (1,1,9)               0.0000000      SURF                                    
     10     (1,1,10)              0.0000000      SURF                                    
     11     (1,2,1)               0.0000000      SURF                                    
     12     (1,2,2)               0.0000000      SURF                                    
     13     (1,2,3)               0.0000000      SURF                                    
     14     (1,2,4)               0.0000000      SURF                                    
     15     (1,2,5)               0.0000000      SURF                                    
     16     (1,2,6)               0.0000000      SURF                                    
     17     (1,2,7)               0.0000000      SURF                                    
     18     (1,2,8)               0.0000000      SURF                                    
     19     (1,2,9)               0.0000000      SURF                                    
     20     (1,2,10)              0.0000000      SURF                                    
     21     (1,3,1)               0.0000000      SURF                                    
     22     (1,3,2)               0.0000000      SURF                                    
     23     (1,3,3)               0.0000000      SURF                                    
     24     (1,3,4)               0.0000000      SURF                                    
     25     (1,3,5)               0.0000000      SURF                                    
     26     (1,3,6)               0.0000000      SURF                                    
     27     (1,3,7)               0.0000000      SURF                                    
     28     (1,3,8)               0.0000000      SURF                                    
     29     (1,3,9)               0.0000000      SURF                                    
     30     (1,3,10)              0.0000000      SURF                                    
     31     (1,4,1)               0.0000000      SURF                                    
     32     (1,4,2)               0.0000000      SURF                                    
     33     (1,4,3)               0.0000000      SURF                                    
     34     (1,4,4)               0.0000000      SURF                                    
     35     (1,4,5)               0.0000000      SURF                                    
     36     (1,4,6)               0.0000000      SURF                                    
     37     (1,4,7)               0.0000000      SURF                                    
     38     (1,4,8)               0.0000000      SURF                                    
     39     (1,4,9)               0.0000000      SURF                                    
     40     (1,4,10)              0.0000000      SURF                                    
     41     (1,5,1)               0.0000000      SURF                                    
     42     (1,5,2)               0.0000000      SURF                                    
     43     (1,5,3)               0.0000000      SURF                                    
     44     (1,5,4)               0.0000000      SURF                                    
     45     (1,5,5)               0.0000000      SURF                                    
     46     (1,5,6)               0.0000000      SURF                                    
     47     (1,5,7)               0.0000000      SURF                                    
     48     (1,5,8)               0.0000000      SURF                                    
     49     (1,5,9)               0.0000000      SURF                                    
     50     (1,5,10)              0.0000000      SURF                                    
     51     (1,6,1)               0.0000000      SURF                                    
     52     (1,6,2)               0.0000000      SURF                                    
     53     (1,6,3)               0.0000000      SURF                                    
     54     (1,6,4)               0.0000000      SURF                                    
     55     (1,6,5)               0.0000000      SURF                                    
     56     (1,6,6)               0.0000000      SURF                                    
     57     (1,6,7)              -9.15315468E-09 SURF                                    
     58     (1,6,8)               0.0000000      SURF                                    
     59     (1,6,9)               0.0000000      SURF                                    
     60     (1,6,10)              0.0000000      SURF                                    
     61     (1,7,1)               0.0000000      SURF                                    
     62     (1,7,2)               0.0000000      SURF                                    
     63     (1,7,3)               0.0000000      SURF                                    
     64     (1,7,4)               0.0000000      SURF                                    
     65     (1,7,5)               0.0000000      SURF                                    
     66     (1,7,6)               0.0000000      SURF                                    
     67     (1,7,7)               0.0000000      SURF                                    
     68     (1,7,8)               0.0000000      SURF                                    
     69     (1,7,9)               0.0000000      SURF                                    
     70     (1,7,10)              0.0000000      SURF                                    
     71     (1,8,1)               0.0000000      SURF                                    
     72     (1,8,2)               0.0000000      SURF                                    
     73     (1,8,3)               0.0000000      SURF                                    
     74     (1,8,4)               0.0000000      SURF                                    
     75     (1,8,5)               0.0000000      SURF                                    
     76     (1,8,6)               0.0000000      SURF                                    
     77     (1,8,7)               0.0000000      SURF                                    
     78     (1,8,8)               0.0000000      SURF                                    
     79     (1,8,9)               0.0000000      SURF                                    
     80     (1,8,10)              0.0000000      SURF                                    
     81     (1,9,1)               0.0000000      SURF                                    
     82     (1,9,2)               0.0000000      SURF                                    
     83     (1,9,3)               0.0000000      SURF                                    
     84     (1,9,4)               0.0000000      SURF                                    
     85     (1,9,5)               0.0000000      SURF                                    
     86     (1,9,6)               0.0000000      SURF                                    
     87     (1,9,7)               0.0000000      SURF                                    
     88     (1,9,8)               0.0000000      SURF                                    
     89     (1,9,9)               0.0000000      SURF                                    
     90     (1,9,10)              0.0000000      SURF                                    
     91     (1,10,1)              0.0000000      SURF                                    
     92     (1,10,2)              0.0000000      SURF                                    
     93     (1,10,3)              0.0000000      SURF                                    
     94     (1,10,4)              0.0000000      SURF                                    
     95     (1,10,5)              0.0000000      SURF                                    
     96     (1,10,6)              0.0000000      SURF                                    
     97     (1,10,7)             -3.56187229E-07 SURF                                    
     98     (1,10,8)              0.0000000      SURF                                    
     99     (1,10,9)              0.0000000      SURF                                    
    100     (1,10,10)             0.0000000      SURF                                    
    101     (1,11,1)              0.0000000      SURF                                    
    102     (1,11,2)              0.0000000      SURF                                    
    103     (1,11,3)              0.0000000      SURF                                    
    104     (1,11,4)              0.0000000      SURF                                    
    105     (1,11,5)              0.0000000      SURF                                    
    106     (1,11,6)              0.0000000      SURF                                    
    107     (1,11,7)              0.0000000      SURF                                    
    108     (1,11,8)              0.0000000      SURF                                    
    109     (1,11,9)              0.0000000      SURF                                    
    110     (1,11,10)             0.0000000      SURF                                    
    111     (1,12,1)              0.0000000      SURF                                    
    112     (1,12,2)              0.0000000      SURF                                    
    113     (1,12,3)              0.0000000      SURF                                    
    114     (1,12,4)              0.0000000      SURF                                    
    115     (1,12,5)              0.0000000      SURF                                    
    116     (1,12,6)              0.0000000      SURF                                    
    117     (1,12,7)              0.0000000      SURF                                    
    118     (1,12,8)              0.0000000      SURF                                    
    119     (1,12,9)              0.0000000      SURF                                    
    120     (1,12,10)             0.0000000      SURF                                    
    121     (1,13,1)              0.0000000      SURF                                    
    122     (1,13,2)              0.0000000      SURF                                    
    123     (1,13,3)              0.0000000      SURF                                    
    124     (1,13,4)              0.0000000      SURF                                    
    125     (1,13,5)              0.0000000      SURF                                    
    126     (1,13,6)              0.0000000      SURF                                    
    127     (1,13,7)              0.0000000      SURF                                    
    128     (1,13,8)              0.0000000      SURF                                    
    129     (1,13,9)              0.0000000      SURF                                    
    130     (1,13,10)             0.0000000      SURF                                    
    131     (1,14,1)              0.0000000      SURF                                    
    132     (1,14,2)              0.0000000      SURF                                    
    133     (1,14,3)              0.0000000      SURF                                    
    134     (1,14,4)              0.0000000      SURF                                    
    135     (1,14,5)              0.0000000      SURF                                    
    136     (1,14,6)              0.0000000      SURF                                    
    137     (1,14,7)              0.0000000      SURF                                    
    138     (1,14,8)              0.0000000      SURF                                    
    139     (1,14,9)              0.0000000      SURF                                    
    140     (1,14,10)             0.0000000      SURF                                    
    141     (1,15,1)              0.0000000      SURF                                    
    142     (1,15,2)              0.0000000      SURF                                    
    143     (1,15,3)              0.0000000      SURF                                    
    144     (1,15,4)              0.0000000      SURF                                    
    145     (1,15,5)              0.0000000      SURF                                    
    146     (1,15,6)              0.0000000      SURF                                    
    147     (1,15,7)              0.0000000      SURF                                    
    148     (1,15,8)              0.0000000      SURF                                    
    149     (1,15,9)              0.0000000      SURF                                    
    150     (1,15,10)             0.0000000      SURF                                    
 ----------------------------------------------------------------------------------------




 API PACKAGE (MAR) FLOW RATES   PERIOD      2   STEP       42
 -----------------------------------------------
   NUMBER   CELLID                    RATE      
 -----------------------------------------------
     1      (1,6,5)               34.579254     
     2      (1,6,6)               34.579254     
     3      (1,6,7)               34.579254     
     4      (1,10,5)              34.790402     
     5      (1,10,6)              34.790402     
     6      (1,10,7)              34.790402     
 -----------------------------------------------



1
  HEAD IN LAYER   1 AT END OF TIME STEP  42 IN STRESS PERIOD    2
  ---------------------------------------------------------------------------

            1           2           3           4           5           6           7           8           9          10
 ........................................................................................................................
   1   1.3806E-03  2.7167E-03  5.6938E-03  1.0222E-02  1.4774E-02  1.6630E-02  1.4801E-02  1.0323E-02  6.0181E-03  3.6358E-03
   2   2.9652E-03  6.0410E-03  1.3130E-02  2.4415E-02  3.6261E-02  4.0925E-02  3.6316E-02  2.4623E-02  1.3816E-02  8.0412E-03
   3   6.6987E-03  1.4181E-02  3.2189E-02  6.2719E-02  9.7078E-02  0.1095      9.7194E-02  6.3170E-02  3.3711E-02  1.8757E-02
   4   1.2529E-02  2.7702E-02  6.6519E-02  0.1393      0.2330      0.2601      0.2332      0.1401      6.9305E-02  3.6352E-02
   5   1.7188E-02  3.9817E-02  0.1036      0.2474      0.4969      0.5306      0.4971      0.2485      0.1073      5.1770E-02
   6   1.2843E-02  2.9569E-02  8.5606E-02  0.2791      0.9998      0.9061       1.000      0.2799      8.8455E-02  3.8339E-02
   7  -4.4749E-03 -2.2341E-02 -9.1275E-02 -0.3000     -0.8267      -2.069     -0.8267     -0.2999     -9.1694E-02 -2.6512E-02
   8  -1.6251E-02 -5.8228E-02 -0.2200     -0.7627      -2.533      -9.223      -2.533     -0.7632     -0.2227     -7.1208E-02
   9  -6.8162E-03 -2.5920E-02 -9.6500E-02 -0.3054     -0.8295      -2.071     -0.8295     -0.3055     -9.7527E-02 -3.1522E-02
  10   9.1535E-03  2.3937E-02  7.7532E-02  0.2716      0.9999      0.9081       1.000      0.2721      7.9437E-02  3.0463E-02
  11   1.3431E-02  3.3851E-02  9.4224E-02  0.2359      0.4864      0.5204      0.4866      0.2367      9.7014E-02  4.3496E-02
  12   9.6777E-03  2.3001E-02  5.8575E-02  0.1280      0.2199      0.2463      0.2200      0.1286      6.0641E-02  2.9877E-02
  13   4.9921E-03  1.1296E-02  2.7092E-02  5.4991E-02  8.7305E-02  9.8937E-02  8.7378E-02  5.5294E-02  2.8185E-02  1.4801E-02
  14   2.1034E-03  4.5638E-03  1.0457E-02  2.0222E-02  3.0772E-02  3.4912E-02  3.0805E-02  2.0356E-02  1.0927E-02  6.0213E-03
  15   9.2332E-04  1.9284E-03  4.2506E-03  7.9210E-03  1.1714E-02  1.3260E-02  1.1730E-02  7.9827E-03  4.4607E-03  2.5596E-03

 HEAD WILL BE SAVED ON UNIT 1100 AT END OF TIME STEP   42, STRESS PERIOD    2


  VOLUME BUDGET FOR ENTIRE MODEL AT END OF TIME STEP   42, STRESS PERIOD   2
  ---------------------------------------------------------------------------------------------------

     CUMULATIVE VOLUME      L**3       RATES FOR THIS TIME STEP      L**3/T          PACKAGE NAME    
     ------------------                 ------------------------                     ----------------

           IN:                                      IN:
           ---                                      ---
              STO-SS =          20.5009                STO-SS =       1.6683E-02     STORAGE                          
              STO-SY =       52044.8716                STO-SY =          36.6464     STORAGE                          
                 WEL =           0.0000                   WEL =           0.0000     WEL-1                            
                 DRN =           0.0000                   DRN =           0.0000     DRN-0                            
                 API =       84570.5953                   API =         208.1090     MAR                              
                 CHD =       2.0279E-08                   CHD =           0.0000     CHD_0                            

            TOTAL IN =      136635.9678              TOTAL IN =         244.7720

          OUT:                                     OUT:
          ----                                     ----
              STO-SS =          16.7582                STO-SS =       1.5741E-02     STORAGE                          
              STO-SY =       32641.1868                STO-SY =          31.0309     STORAGE                          
                 WEL =      103978.0227                   WEL =         213.7254     WEL-1                            
                 DRN =       1.3701E-04                   DRN =       3.6534E-07     DRN-0                            
                 API =           0.0000                   API =           0.0000     MAR                              
                 CHD =       2.0705E-08                   CHD =           0.0000     CHD_0                            

           TOTAL OUT =      136635.9678             TOTAL OUT =         244.7720

            IN - OUT =      -1.0605E-06              IN - OUT =      -3.0452E-09

 PERCENT DISCREPANCY =          -0.00     PERCENT DISCREPANCY =          -0.00




         TIME SUMMARY AT END OF TIME STEP   42 IN STRESS PERIOD    2
                    SECONDS     MINUTES      HOURS       DAYS        YEARS
                    -----------------------------------------------------------
   TIME STEP LENGTH 8.64000E+05  14400.      240.00      10.000     2.73785E-02
 STRESS PERIOD TIME 3.62880E+07 6.04800E+05  10080.      420.00      1.1499    
         TOTAL TIME 3.63744E+07 6.06240E+05  10104.      421.00      1.1526    


end timestep


start timestep kper="2" kstp="43" mode="normal"

 UBDSV1 SAVING           STO-SS ON UNIT   1099 AT TIME STEP     43, STRESS PERIOD      2
 UBDSV1 SAVING           STO-SY ON UNIT   1099 AT TIME STEP     43, STRESS PERIOD      2
 UBDSV1 SAVING     FLOW-JA-FACE ON UNIT   1099 AT TIME STEP     43, STRESS PERIOD      2
 UBDSV06 SAVING       DATA-SPDIS IN MODEL GWF              PACKAGE NPF             CONNECTED TO MODEL GWF              PACKAGE NPF              ON UNIT   1099 AT TIME STEP     43, STRESS PERIOD      2
 UBDSV06 SAVING              WEL IN MODEL GWF              PACKAGE GWF             CONNECTED TO MODEL GWF              PACKAGE WEL-1            ON UNIT   1099 AT TIME STEP     43, STRESS PERIOD      2
 UBDSV06 SAVING              DRN IN MODEL GWF              PACKAGE GWF             CONNECTED TO MODEL GWF              PACKAGE DRN-0            ON UNIT   1099 AT TIME STEP     43, STRESS PERIOD      2
 UBDSV06 SAVING              API IN MODEL GWF              PACKAGE GWF             CONNECTED TO MODEL GWF              PACKAGE MAR              ON UNIT   1099 AT TIME STEP     43, STRESS PERIOD      2
 UBDSV06 SAVING              CHD IN MODEL GWF              PACKAGE GWF             CONNECTED TO MODEL GWF              PACKAGE CHD_0            ON UNIT   1099 AT TIME STEP     43, STRESS PERIOD      2

    CALCULATED INTERCELL FLOW FOR PERIOD 2 STEP 43
(1,1,1): (1,1,2) 1.442382E-02 (1,2,1) 1.703455E-02
(1,1,2): (1,1,1) -1.442382E-02 (1,1,3) 3.185858E-02 (1,2,2) 3.521992E-02
(1,1,3): (1,1,2) -3.185858E-02 (1,1,4) 4.800208E-02 (1,2,3) 7.789058E-02
(1,1,4): (1,1,3) -4.800208E-02 (1,1,5) 4.792446E-02 (1,2,4) 0.147528
(1,1,5): (1,1,4) -4.792446E-02 (1,1,6) 1.952135E-02 (1,2,5) 0.222429
(1,1,6): (1,1,5) -1.952135E-02 (1,1,7) -1.921012E-02 (1,2,6) 0.251299
(1,1,7): (1,1,6) 1.921012E-02 (1,1,8) -4.708160E-02 (1,2,7) 0.222740
(1,1,8): (1,1,7) 4.708160E-02 (1,1,9) -4.551140E-02 (1,2,8) 0.148717
(1,1,9): (1,1,8) 4.551140E-02 (1,1,10) -2.533248E-02 (1,2,9) 8.181712E-02
(1,1,10): (1,1,9) 2.533248E-02 (1,2,10) 4.677867E-02
(1,2,1): (1,1,1) -1.703455E-02 (1,2,2) 3.260872E-02 (1,3,1) 3.955838E-02
(1,2,2): (1,1,2) -3.521992E-02 (1,2,1) -3.260872E-02 (1,2,3) 7.452781E-02 (1,3,2) 8.504893E-02
(1,2,3): (1,1,3) -7.789058E-02 (1,2,2) -7.452781E-02 (1,2,4) 0.117619 (1,3,3) 0.197167
(1,2,4): (1,1,4) -0.147528 (1,2,3) -0.117619 (1,2,5) 0.122752 (1,3,4) 0.394300
(1,2,5): (1,1,5) -0.222429 (1,2,4) -0.122752 (1,2,6) 4.833292E-02 (1,3,5) 0.625291
(1,2,6): (1,1,6) -0.251299 (1,2,5) -4.833292E-02 (1,2,7) -4.771170E-02 (1,3,6) 0.705505
(1,2,7): (1,1,7) -0.222740 (1,2,6) 4.771170E-02 (1,2,8) -0.121030 (1,3,7) 0.625983
(1,2,8): (1,1,8) -0.148717 (1,2,7) 0.121030 (1,2,9) -0.112387 (1,3,8) 0.396972
(1,2,9): (1,1,9) -8.181712E-02 (1,2,8) 0.112387 (1,2,10) -6.036344E-02 (1,3,9) 0.206150
(1,2,10): (1,1,10) -4.677867E-02 (1,2,9) 6.036344E-02 (1,3,10) 0.112229
(1,3,1): (1,2,1) -3.955838E-02 (1,3,2) 7.809611E-02 (1,4,1) 6.052796E-02
(1,3,2): (1,2,2) -8.504893E-02 (1,3,1) -7.809611E-02 (1,3,3) 0.186635 (1,4,2) 0.138641
(1,3,3): (1,2,3) -0.197167 (1,3,2) -0.186635 (1,3,4) 0.314597 (1,4,3) 0.350010
(1,3,4): (1,2,4) -0.394300 (1,3,3) -0.314597 (1,3,5) 0.353130 (1,4,4) 0.782154
(1,3,5): (1,2,5) -0.625291 (1,3,4) -0.353130 (1,3,6) 0.128099 (1,4,5) 1.39768
(1,3,6): (1,2,6) -0.705505 (1,3,5) -0.128099 (1,3,7) -0.126789 (1,4,6) 1.55251
(1,3,7): (1,2,7) -0.625983 (1,3,6) 0.126789 (1,3,8) -0.349423 (1,4,7) 1.39869
(1,3,8): (1,2,8) -0.396972 (1,3,7) 0.349423 (1,3,9) -0.303034 (1,4,8) 0.786054
(1,3,9): (1,2,9) -0.206150 (1,3,8) 0.303034 (1,3,10) -0.154236 (1,4,9) 0.363419
(1,3,10): (1,2,10) -0.112229 (1,3,9) 0.154236 (1,4,10) 0.180911
(1,4,1): (1,3,1) -6.052796E-02 (1,4,2) 0.156222 (1,5,1) 4.631404E-02
(1,4,2): (1,3,2) -0.138641 (1,4,1) -0.156222 (1,4,3) 0.398103 (1,5,2) 0.119736
(1,4,3): (1,3,3) -0.350010 (1,4,2) -0.398103 (1,4,4) 0.746593 (1,5,3) 0.369069
(1,4,4): (1,3,4) -0.782154 (1,4,3) -0.746593 (1,4,5) 0.966152 (1,5,4) 1.09838
(1,4,5): (1,3,5) -1.39768 (1,4,4) -0.966152 (1,4,6) 0.281103 (1,5,5) 2.76010
(1,4,6): (1,3,6) -1.55251 (1,4,5) -0.281103 (1,4,7) -0.278794 (1,5,6) 2.83799
(1,4,7): (1,3,7) -1.39869 (1,4,6) 0.278794 (1,4,8) -0.959519 (1,5,7) 2.76086
(1,4,8): (1,3,8) -0.786054 (1,4,7) 0.959519 (1,4,9) -0.725420 (1,5,8) 1.10119
(1,4,9): (1,3,9) -0.363419 (1,4,8) 0.725420 (1,4,10) -0.336697 (1,5,9) 0.378882
(1,4,10): (1,3,10) -0.180911 (1,4,9) 0.336697 (1,5,10) 0.152634
(1,5,1): (1,4,1) -4.631404E-02 (1,5,2) 0.229724 (1,6,1) -4.868799E-02
(1,5,2): (1,4,2) -0.119736 (1,5,1) -0.229724 (1,5,3) 0.648116 (1,6,2) -0.113712
(1,5,3): (1,4,3) -0.369069 (1,5,2) -0.648116 (1,5,4) 1.47853 (1,6,3) -0.204338
(1,5,4): (1,4,4) -1.09838 (1,5,3) -1.47853 (1,5,5) 2.62587 (1,6,4) 0.290175
(1,5,5): (1,4,5) -2.76010 (1,5,4) -2.62587 (1,5,6) 0.357452 (1,6,5) 5.50573
(1,5,6): (1,4,6) -2.83799 (1,5,5) -0.357452 (1,5,7) -0.354398 (1,6,6) 4.07313
(1,5,7): (1,4,7) -2.76086 (1,5,6) 0.354398 (1,5,8) -2.61705 (1,6,7) 5.50517
(1,5,8): (1,4,8) -1.10119 (1,5,7) 2.61705 (1,5,9) -1.45011 (1,6,8) 0.287541
(1,5,9): (1,4,9) -0.378882 (1,5,8) 1.45011 (1,5,10) -0.563352 (1,6,9) -0.214621
(1,5,10): (1,4,10) -0.152634 (1,5,9) 0.563352 (1,6,10) -0.149421
(1,6,1): (1,5,1) 4.868799E-02 (1,6,2) 0.164625 (1,7,1) -0.181499
(1,6,2): (1,5,2) 0.113712 (1,6,1) -0.164625 (1,6,3) 0.557099 (1,7,2) -0.536754
(1,6,3): (1,5,3) 0.204338 (1,6,2) -0.557099 (1,6,4) 1.98060 (1,7,3) -1.81753
(1,6,4): (1,5,4) -0.290175 (1,6,3) -1.98060 (1,6,5) 7.94622 (1,7,4) -6.01125
(1,6,5): (1,5,5) -5.50573 (1,6,4) -7.94622 (1,6,6) -1.02453 (1,7,5) -20.1860
(1,6,6): (1,5,6) -4.07313 (1,6,5) 1.02453 (1,6,7) 1.02707 (1,7,6) -32.5309
(1,6,7): (1,5,7) -5.50517 (1,6,6) -1.02707 (1,6,8) -7.93924 (1,7,7) -20.1882
(1,6,8): (1,5,8) -0.287541 (1,6,7) 7.93924 (1,6,9) -1.95983 (1,7,8) -6.02008
(1,6,9): (1,5,9) 0.214621 (1,6,8) 1.95983 (1,6,10) -0.497933 (1,7,9) -1.85290
(1,6,10): (1,5,10) 0.149421 (1,6,9) 0.497933 (1,7,10) -0.672550
(1,7,1): (1,6,1) 0.181499 (1,7,2) -0.189676 (1,8,1) -0.121874
(1,7,2): (1,6,2) 0.536754 (1,7,1) 0.189676 (1,7,3) -0.712951 (1,8,2) -0.365885
(1,7,3): (1,6,3) 1.81753 (1,7,2) 0.712951 (1,7,4) -2.09933 (1,8,3) -1.29055
(1,7,4): (1,6,4) 6.01125 (1,7,3) 2.09933 (1,7,5) -5.11593 (1,8,4) -4.50970
(1,7,5): (1,6,5) 20.1860 (1,7,4) 5.11593 (1,7,6) -11.3704 (1,8,5) -15.6549
(1,7,6): (1,6,6) 32.5309 (1,7,5) 11.3704 (1,7,7) 11.3711 (1,8,6) -56.6478
(1,7,7): (1,6,7) 20.1882 (1,7,6) -11.3711 (1,7,8) 5.11601 (1,8,7) -15.6563
(1,7,8): (1,6,8) 6.02008 (1,7,7) -5.11601 (1,7,9) 2.09321 (1,8,8) -4.51561
(1,7,9): (1,6,9) 1.85290 (1,7,8) -2.09321 (1,7,10) 0.671273 (1,8,9) -1.31408
(1,7,10): (1,6,10) 0.672550 (1,7,9) -0.671273 (1,8,10) -0.456283
(1,8,1): (1,7,1) 0.121874 (1,8,2) -0.433853 (1,9,1) 9.835490E-02
(1,8,2): (1,7,2) 0.365885 (1,8,1) 0.433853 (1,8,3) -1.64087 (1,9,2) 0.330618
(1,8,3): (1,7,3) 1.29055 (1,8,2) 1.64087 (1,8,4) -5.34583 (1,9,3) 1.23994
(1,8,4): (1,7,4) 4.50970 (1,8,3) 5.34583 (1,8,5) -16.3388 (1,9,4) 4.45745
(1,8,5): (1,7,5) 15.6549 (1,8,4) 16.3388 (1,8,6) -49.8198 (1,9,5) 15.6269
(1,8,6): (1,7,6) 56.6478 (1,8,5) 49.8198 (1,8,7) 49.8187 (1,9,6) 56.6255
(1,8,7): (1,7,7) 15.6563 (1,8,6) -49.8187 (1,8,8) 16.3337 (1,9,7) 15.6276
(1,8,8): (1,7,8) 4.51561 (1,8,7) -16.3337 (1,8,9) 5.32095 (1,9,8) 4.46108
(1,8,9): (1,7,9) 1.31408 (1,8,8) -5.32095 (1,8,10) 1.53095 (1,9,9) 1.25729
(1,8,10): (1,7,10) 0.456283 (1,8,9) -1.53095 (1,9,10) 0.406793
(1,9,1): (1,8,1) -9.835490E-02 (1,9,2) -0.201349 (1,10,1) 0.167742
(1,9,2): (1,8,2) -0.330618 (1,9,1) 0.201349 (1,9,3) -0.727879 (1,10,2) 0.515935
(1,9,3): (1,8,3) -1.23994 (1,9,2) 0.727879 (1,9,4) -2.09925 (1,10,3) 1.78787
(1,9,4): (1,8,4) -4.45745 (1,9,3) 2.09925 (1,9,5) -5.08830 (1,10,4) 5.98619
(1,9,5): (1,8,5) -15.6269 (1,9,4) 5.08830 (1,9,6) -11.3572 (1,10,5) 20.2155
(1,9,6): (1,8,6) -56.6255 (1,9,5) 11.3572 (1,9,7) 11.3572 (1,10,6) 32.5741
(1,9,7): (1,8,7) -15.6276 (1,9,6) -11.3572 (1,9,8) 5.08674 (1,10,7) 20.2172
(1,9,8): (1,8,8) -4.46108 (1,9,7) -5.08674 (1,9,9) 2.08913 (1,10,8) 5.99362
(1,9,9): (1,8,9) -1.25729 (1,9,8) -2.08913 (1,9,10) 0.678102 (1,10,9) 1.81955
(1,9,10): (1,8,10) -0.406793 (1,9,9) -0.678102 (1,10,10) 0.643311
(1,10,1): (1,9,1) -0.167742 (1,10,2) 0.145969 (1,11,1) 4.770143E-02
(1,10,2): (1,9,2) -0.515935 (1,10,1) -0.145969 (1,10,3) 0.533704 (1,11,2) 0.109896
(1,10,3): (1,9,3) -1.78787 (1,10,2) -0.533704 (1,10,4) 1.98612 (1,11,3) 0.190729
(1,10,4): (1,9,4) -5.98619 (1,10,3) -1.98612 (1,10,5) 8.02632 (1,11,4) -0.330804
(1,10,5): (1,9,5) -20.2155 (1,10,4) -8.02632 (1,10,6) -1.00416 (1,11,5) -5.61742
(1,10,6): (1,9,6) -32.5741 (1,10,5) 1.00416 (1,10,7) 1.00561 (1,11,6) -4.20128
(1,10,7): (1,9,7) -20.2172 (1,10,6) -1.00561 (1,10,8) -8.02194 (1,11,7) -5.61686
(1,10,8): (1,9,8) -5.99362 (1,10,7) 8.02194 (1,10,9) -1.97165 (1,11,8) -0.328233
(1,10,9): (1,9,9) -1.81955 (1,10,8) 1.97165 (1,10,10) -0.487385 (1,11,9) 0.200805
(1,10,10): (1,9,10) -0.643311 (1,10,9) 0.487385 (1,11,10) 0.144712
(1,11,1): (1,10,1) -4.770143E-02 (1,11,2) 0.208224 (1,12,1) -3.742265E-02
(1,11,2): (1,10,2) -0.109896 (1,11,1) -0.208224 (1,11,3) 0.614870 (1,12,2) -0.107576
(1,11,3): (1,10,3) -0.190729 (1,11,2) -0.614870 (1,11,4) 1.45671 (1,12,3) -0.355584
(1,11,4): (1,10,4) 0.330804 (1,11,3) -1.45671 (1,11,5) 2.63493 (1,12,4) -1.09584
(1,11,5): (1,10,5) 5.61742 (1,11,4) -2.63493 (1,11,6) 0.360497 (1,12,5) -2.78584
(1,11,6): (1,10,6) 4.20128 (1,11,5) -0.360497 (1,11,7) -0.358526 (1,12,6) -2.87416
(1,11,7): (1,10,7) 5.61686 (1,11,6) 0.358526 (1,11,8) -2.62866 (1,12,7) -2.78632
(1,11,8): (1,10,8) 0.328233 (1,11,7) 2.62866 (1,11,9) -1.43471 (1,12,8) -1.09775
(1,11,9): (1,10,9) -0.200805 (1,11,8) 1.43471 (1,11,10) -0.543664 (1,12,9) -0.363010
(1,11,10): (1,10,10) -0.144712 (1,11,9) 0.543664 (1,12,10) -0.135232
(1,12,1): (1,11,1) 3.742265E-02 (1,12,2) 0.138001 (1,13,1) -4.900573E-02
(1,12,2): (1,11,2) 0.107576 (1,12,1) -0.138001 (1,12,3) 0.366232 (1,13,2) -0.120685
(1,12,3): (1,11,3) 0.355584 (1,12,2) -0.366232 (1,12,4) 0.713925 (1,13,3) -0.322166
(1,12,4): (1,11,4) 1.09584 (1,12,3) -0.713925 (1,12,5) 0.947199 (1,13,4) -0.747634
(1,12,5): (1,11,5) 2.78584 (1,12,4) -0.947199 (1,12,6) 0.273976 (1,13,5) -1.36436
(1,12,6): (1,11,6) 2.87416 (1,12,5) -0.273976 (1,12,7) -0.272468 (1,13,6) -1.52002
(1,12,7): (1,11,7) 2.78632 (1,12,6) 0.272468 (1,12,8) -0.942471 (1,13,7) -1.36503
(1,12,8): (1,11,8) 1.09775 (1,12,7) 0.942471 (1,12,9) -0.697634 (1,13,8) -0.750441
(1,12,9): (1,11,9) 0.363010 (1,12,8) 0.697634 (1,12,10) -0.315485 (1,13,9) -0.332568
(1,12,10): (1,11,10) 0.135232 (1,12,9) 0.315485 (1,13,10) -0.155893
(1,13,1): (1,12,1) 4.900573E-02 (1,13,2) 6.630880E-02 (1,14,1) -3.090301E-02
(1,13,2): (1,12,2) 0.120685 (1,13,1) -6.630880E-02 (1,13,3) 0.164664 (1,14,2) -7.087824E-02
(1,13,3): (1,12,3) 0.322166 (1,13,2) -0.164664 (1,13,4) 0.288596 (1,14,3) -0.173113
(1,13,4): (1,12,4) 0.747634 (1,13,3) -0.288596 (1,13,5) 0.332910 (1,14,4) -0.359443
(1,13,5): (1,12,5) 1.36436 (1,13,4) -0.332910 (1,13,6) 0.120120 (1,14,5) -0.583054
(1,13,6): (1,12,6) 1.52002 (1,13,5) -0.120120 (1,13,7) -0.119281 (1,14,6) -0.660457
(1,13,7): (1,12,7) 1.36503 (1,13,6) 0.119281 (1,13,8) -0.330336 (1,14,7) -0.583512
(1,13,8): (1,12,8) 0.750441 (1,13,7) 0.330336 (1,13,9) -0.279974 (1,14,8) -0.361325
(1,13,9): (1,12,9) 0.332568 (1,13,8) 0.279974 (1,13,10) -0.138839 (1,14,9) -0.179874
(1,13,10): (1,12,10) 0.155893 (1,13,9) 0.138839 (1,14,10) -9.267744E-02
(1,14,1): (1,13,1) 3.090301E-02 (1,14,2) 2.633540E-02 (1,15,1) -1.283306E-02
(1,14,2): (1,13,2) 7.087824E-02 (1,14,1) -2.633540E-02 (1,14,3) 6.243843E-02 (1,15,2) -2.819108E-02
(1,14,3): (1,13,3) 0.173113 (1,14,2) -6.243843E-02 (1,14,4) 0.102396 (1,15,3) -6.552983E-02
(1,14,4): (1,13,4) 0.359443 (1,14,3) -0.102396 (1,14,5) 0.109845 (1,15,4) -0.128705
(1,14,5): (1,13,5) 0.583054 (1,14,4) -0.109845 (1,14,6) 4.312351E-02 (1,15,5) -0.198386
(1,14,6): (1,13,6) 0.660457 (1,14,5) -4.312351E-02 (1,14,7) -4.274058E-02 (1,15,6) -0.225178
(1,14,7): (1,13,7) 0.583512 (1,14,6) 4.274058E-02 (1,14,8) -0.108699 (1,15,7) -0.198587
(1,14,8): (1,13,8) 0.361325 (1,14,7) 0.108699 (1,14,9) -9.866837E-02 (1,15,8) -0.129519
(1,14,9): (1,13,9) 0.179874 (1,14,8) 9.866837E-02 (1,14,10) -5.167859E-02 (1,15,9) -6.838871E-02
(1,14,10): (1,13,10) 9.267744E-02 (1,14,9) 5.167859E-02 (1,15,10) -3.712461E-02
(1,15,1): (1,14,1) 1.283306E-02 (1,15,2) 1.097766E-02
(1,15,2): (1,14,2) 2.819108E-02 (1,15,1) -1.097766E-02 (1,15,3) 2.510084E-02
(1,15,3): (1,14,3) 6.552983E-02 (1,15,2) -2.510084E-02 (1,15,4) 3.923741E-02
(1,15,4): (1,14,4) 0.128705 (1,15,3) -3.923741E-02 (1,15,5) 4.022485E-02
(1,15,5): (1,14,5) 0.198386 (1,15,4) -4.022485E-02 (1,15,6) 1.638057E-02
(1,15,6): (1,14,6) 0.225178 (1,15,5) -1.638057E-02 (1,15,7) -1.619770E-02
(1,15,7): (1,14,7) 0.198587 (1,15,6) 1.619770E-02 (1,15,8) -3.969215E-02
(1,15,8): (1,14,8) 0.129519 (1,15,7) 3.969215E-02 (1,15,9) -3.755715E-02
(1,15,9): (1,14,9) 6.838871E-02 (1,15,8) 3.755715E-02 (1,15,10) -2.041970E-02
(1,15,10): (1,14,10) 3.712461E-02 (1,15,9) 2.041970E-02

 WEL PACKAGE (WEL-1) FLOW RATES   PERIOD      2   STEP       43
 ----------------------------------------------------------------------------------------
   NUMBER   CELLID                    RATE       NAME                                    
 ----------------------------------------------------------------------------------------
     1      (1,8,6)              -213.23330      WEL                                     
 ----------------------------------------------------------------------------------------




 DRN PACKAGE (DRN-0) FLOW RATES   PERIOD      2   STEP       43
 ----------------------------------------------------------------------------------------
   NUMBER   CELLID                    RATE       NAME                                    
 ----------------------------------------------------------------------------------------
     1      (1,1,1)               0.0000000      SURF                                    
     2      (1,1,2)               0.0000000      SURF                                    
     3      (1,1,3)               0.0000000      SURF                                    
     4      (1,1,4)               0.0000000      SURF                                    
     5      (1,1,5)               0.0000000      SURF                                    
     6      (1,1,6)               0.0000000      SURF                                    
     7      (1,1,7)               0.0000000      SURF                                    
     8      (1,1,8)               0.0000000      SURF                                    
     9      (1,1,9)               0.0000000      SURF                                    
     10     (1,1,10)              0.0000000      SURF                                    
     11     (1,2,1)               0.0000000      SURF                                    
     12     (1,2,2)               0.0000000      SURF                                    
     13     (1,2,3)               0.0000000      SURF                                    
     14     (1,2,4)               0.0000000      SURF                                    
     15     (1,2,5)               0.0000000      SURF                                    
     16     (1,2,6)               0.0000000      SURF                                    
     17     (1,2,7)               0.0000000      SURF                                    
     18     (1,2,8)               0.0000000      SURF                                    
     19     (1,2,9)               0.0000000      SURF                                    
     20     (1,2,10)              0.0000000      SURF                                    
     21     (1,3,1)               0.0000000      SURF                                    
     22     (1,3,2)               0.0000000      SURF                                    
     23     (1,3,3)               0.0000000      SURF                                    
     24     (1,3,4)               0.0000000      SURF                                    
     25     (1,3,5)               0.0000000      SURF                                    
     26     (1,3,6)               0.0000000      SURF                                    
     27     (1,3,7)               0.0000000      SURF                                    
     28     (1,3,8)               0.0000000      SURF                                    
     29     (1,3,9)               0.0000000      SURF                                    
     30     (1,3,10)              0.0000000      SURF                                    
     31     (1,4,1)               0.0000000      SURF                                    
     32     (1,4,2)               0.0000000      SURF                                    
     33     (1,4,3)               0.0000000      SURF                                    
     34     (1,4,4)               0.0000000      SURF                                    
     35     (1,4,5)               0.0000000      SURF                                    
     36     (1,4,6)               0.0000000      SURF                                    
     37     (1,4,7)               0.0000000      SURF                                    
     38     (1,4,8)               0.0000000      SURF                                    
     39     (1,4,9)               0.0000000      SURF                                    
     40     (1,4,10)              0.0000000      SURF                                    
     41     (1,5,1)               0.0000000      SURF                                    
     42     (1,5,2)               0.0000000      SURF                                    
     43     (1,5,3)               0.0000000      SURF                                    
     44     (1,5,4)               0.0000000      SURF                                    
     45     (1,5,5)               0.0000000      SURF                                    
     46     (1,5,6)               0.0000000      SURF                                    
     47     (1,5,7)               0.0000000      SURF                                    
     48     (1,5,8)               0.0000000      SURF                                    
     49     (1,5,9)               0.0000000      SURF                                    
     50     (1,5,10)              0.0000000      SURF                                    
     51     (1,6,1)               0.0000000      SURF                                    
     52     (1,6,2)               0.0000000      SURF                                    
     53     (1,6,3)               0.0000000      SURF                                    
     54     (1,6,4)               0.0000000      SURF                                    
     55     (1,6,5)               0.0000000      SURF                                    
     56     (1,6,6)               0.0000000      SURF                                    
     57     (1,6,7)              -9.12405085E-09 SURF                                    
     58     (1,6,8)               0.0000000      SURF                                    
     59     (1,6,9)               0.0000000      SURF                                    
     60     (1,6,10)              0.0000000      SURF                                    
     61     (1,7,1)               0.0000000      SURF                                    
     62     (1,7,2)               0.0000000      SURF                                    
     63     (1,7,3)               0.0000000      SURF                                    
     64     (1,7,4)               0.0000000      SURF                                    
     65     (1,7,5)               0.0000000      SURF                                    
     66     (1,7,6)               0.0000000      SURF                                    
     67     (1,7,7)               0.0000000      SURF                                    
     68     (1,7,8)               0.0000000      SURF                                    
     69     (1,7,9)               0.0000000      SURF                                    
     70     (1,7,10)              0.0000000      SURF                                    
     71     (1,8,1)               0.0000000      SURF                                    
     72     (1,8,2)               0.0000000      SURF                                    
     73     (1,8,3)               0.0000000      SURF                                    
     74     (1,8,4)               0.0000000      SURF                                    
     75     (1,8,5)               0.0000000      SURF                                    
     76     (1,8,6)               0.0000000      SURF                                    
     77     (1,8,7)               0.0000000      SURF                                    
     78     (1,8,8)               0.0000000      SURF                                    
     79     (1,8,9)               0.0000000      SURF                                    
     80     (1,8,10)              0.0000000      SURF                                    
     81     (1,9,1)               0.0000000      SURF                                    
     82     (1,9,2)               0.0000000      SURF                                    
     83     (1,9,3)               0.0000000      SURF                                    
     84     (1,9,4)               0.0000000      SURF                                    
     85     (1,9,5)               0.0000000      SURF                                    
     86     (1,9,6)               0.0000000      SURF                                    
     87     (1,9,7)               0.0000000      SURF                                    
     88     (1,9,8)               0.0000000      SURF                                    
     89     (1,9,9)               0.0000000      SURF                                    
     90     (1,9,10)              0.0000000      SURF                                    
     91     (1,10,1)              0.0000000      SURF                                    
     92     (1,10,2)              0.0000000      SURF                                    
     93     (1,10,3)              0.0000000      SURF                                    
     94     (1,10,4)              0.0000000      SURF                                    
     95     (1,10,5)              0.0000000      SURF                                    
     96     (1,10,6)              0.0000000      SURF                                    
     97     (1,10,7)             -3.53960786E-07 SURF                                    
     98     (1,10,8)              0.0000000      SURF                                    
     99     (1,10,9)              0.0000000      SURF                                    
    100     (1,10,10)             0.0000000      SURF                                    
    101     (1,11,1)              0.0000000      SURF                                    
    102     (1,11,2)              0.0000000      SURF                                    
    103     (1,11,3)              0.0000000      SURF                                    
    104     (1,11,4)              0.0000000      SURF                                    
    105     (1,11,5)              0.0000000      SURF                                    
    106     (1,11,6)              0.0000000      SURF                                    
    107     (1,11,7)              0.0000000      SURF                                    
    108     (1,11,8)              0.0000000      SURF                                    
    109     (1,11,9)              0.0000000      SURF                                    
    110     (1,11,10)             0.0000000      SURF                                    
    111     (1,12,1)              0.0000000      SURF                                    
    112     (1,12,2)              0.0000000      SURF                                    
    113     (1,12,3)              0.0000000      SURF                                    
    114     (1,12,4)              0.0000000      SURF                                    
    115     (1,12,5)              0.0000000      SURF                                    
    116     (1,12,6)              0.0000000      SURF                                    
    117     (1,12,7)              0.0000000      SURF                                    
    118     (1,12,8)              0.0000000      SURF                                    
    119     (1,12,9)              0.0000000      SURF                                    
    120     (1,12,10)             0.0000000      SURF                                    
    121     (1,13,1)              0.0000000      SURF                                    
    122     (1,13,2)              0.0000000      SURF                                    
    123     (1,13,3)              0.0000000      SURF                                    
    124     (1,13,4)              0.0000000      SURF                                    
    125     (1,13,5)              0.0000000      SURF                                    
    126     (1,13,6)              0.0000000      SURF                                    
    127     (1,13,7)              0.0000000      SURF                                    
    128     (1,13,8)              0.0000000      SURF                                    
    129     (1,13,9)              0.0000000      SURF                                    
    130     (1,13,10)             0.0000000      SURF                                    
    131     (1,14,1)              0.0000000      SURF                                    
    132     (1,14,2)              0.0000000      SURF                                    
    133     (1,14,3)              0.0000000      SURF                                    
    134     (1,14,4)              0.0000000      SURF                                    
    135     (1,14,5)              0.0000000      SURF                                    
    136     (1,14,6)              0.0000000      SURF                                    
    137     (1,14,7)              0.0000000      SURF                                    
    138     (1,14,8)              0.0000000      SURF                                    
    139     (1,14,9)              0.0000000      SURF                                    
    140     (1,14,10)             0.0000000      SURF                                    
    141     (1,15,1)              0.0000000      SURF                                    
    142     (1,15,2)              0.0000000      SURF                                    
    143     (1,15,3)              0.0000000      SURF                                    
    144     (1,15,4)              0.0000000      SURF                                    
    145     (1,15,5)              0.0000000      SURF                                    
    146     (1,15,6)              0.0000000      SURF                                    
    147     (1,15,7)              0.0000000      SURF                                    
    148     (1,15,8)              0.0000000      SURF                                    
    149     (1,15,9)              0.0000000      SURF                                    
    150     (1,15,10)             0.0000000      SURF                                    
 ----------------------------------------------------------------------------------------




 API PACKAGE (MAR) FLOW RATES   PERIOD      2   STEP       43
 -----------------------------------------------
   NUMBER   CELLID                    RATE      
 -----------------------------------------------
     1      (1,6,5)               34.659657     
     2      (1,6,6)               34.659657     
     3      (1,6,7)               34.659657     
     4      (1,10,5)              34.861647     
     5      (1,10,6)              34.861647     
     6      (1,10,7)              34.861647     
 -----------------------------------------------



1
  HEAD IN LAYER   1 AT END OF TIME STEP  43 IN STRESS PERIOD    2
  ---------------------------------------------------------------------------

            1           2           3           4           5           6           7           8           9          10
 ........................................................................................................................
   1   1.5378E-03  2.9798E-03  6.1637E-03  1.0959E-02  1.5744E-02  1.7692E-02  1.5775E-02  1.1074E-02  6.5278E-03  3.9962E-03
   2   3.2408E-03  6.4995E-03  1.3942E-02  2.5674E-02  3.7902E-02  4.2715E-02  3.7964E-02  2.5907E-02  1.4697E-02  8.6700E-03
   3   7.1937E-03  1.4992E-02  3.3593E-02  6.4850E-02  9.9814E-02  0.1125      9.9943E-02  6.5347E-02  3.5240E-02  1.9871E-02
   4   1.3239E-02  2.8816E-02  6.8356E-02  0.1420      0.2364      0.2637      0.2366      0.1428      7.1325E-02  3.7893E-02
   5   1.7862E-02  4.0741E-02  0.1049      0.2491      0.4992      0.5332      0.4995      0.2503      0.1088      5.3076E-02
   6   1.3002E-02  2.9416E-02  8.4658E-02  0.2774      0.9998      0.9066       1.000      0.2783      8.7574E-02  3.8213E-02
   7  -5.1248E-03 -2.4102E-02 -9.5569E-02 -0.3075     -0.8354      -2.076     -0.8353     -0.3075     -9.6107E-02 -2.8786E-02
   8  -1.7318E-02 -6.0779E-02 -0.2259     -0.7728      -2.544      -9.225      -2.544     -0.7733     -0.2288     -7.4546E-02
   9  -7.4756E-03 -2.7626E-02 -0.1006     -0.3127     -0.8379      -2.078     -0.8379     -0.3128     -0.1018     -3.3729E-02
  10   9.2830E-03  2.3845E-02  7.6809E-02  0.2702      0.9999      0.9086       1.000      0.2707      7.8765E-02  3.0407E-02
  11   1.4046E-02  3.4797E-02  9.5701E-02  0.2380      0.4892      0.5234      0.4894      0.2388      9.8649E-02  4.4814E-02
  12   1.0309E-02  2.4076E-02  6.0479E-02  0.1309      0.2236      0.2503      0.2237      0.1316      6.2703E-02  3.1351E-02
  13   5.4139E-03  1.2037E-02  2.8457E-02  5.7152E-02  9.0146E-02  0.1020      9.0229E-02  5.7491E-02  2.9653E-02  1.5810E-02
  14   2.3253E-03  4.9576E-03  1.1194E-02  2.1412E-02  3.2361E-02  3.6658E-02  3.2399E-02  2.1565E-02  1.1719E-02  6.5572E-03
  15   1.0423E-03  2.1398E-03  4.6488E-03  8.5691E-03  1.2587E-02  1.4222E-02  1.2605E-02  8.6406E-03  4.8881E-03  2.8472E-03

 HEAD WILL BE SAVED ON UNIT 1100 AT END OF TIME STEP   43, STRESS PERIOD    2


  VOLUME BUDGET FOR ENTIRE MODEL AT END OF TIME STEP   43, STRESS PERIOD   2
  ---------------------------------------------------------------------------------------------------

     CUMULATIVE VOLUME      L**3       RATES FOR THIS TIME STEP      L**3/T          PACKAGE NAME    
     ------------------                 ------------------------                     ----------------

           IN:                                      IN:
           ---                                      ---
              STO-SS =          20.6617                STO-SS =       1.6075E-02     STORAGE                          
              STO-SY =       52397.3324                STO-SY =          35.2461     STORAGE                          
                 WEL =           0.0000                   WEL =           0.0000     WEL-1                            
                 DRN =           0.0000                   DRN =           0.0000     DRN-0                            
                 API =       86656.2344                   API =         208.5639     MAR                              
                 CHD =       2.0279E-08                   CHD =           0.0000     CHD_0                            

            TOTAL IN =      139074.2284              TOTAL IN =         243.8261

          OUT:                                     OUT:
          ----                                     ----
              STO-SS =          16.9133                STO-SS =       1.5511E-02     STORAGE                          
              STO-SY =       32946.9593                STO-SY =          30.5772     STORAGE                          
                 WEL =      106110.3557                   WEL =         213.2333     WEL-1                            
                 DRN =       1.4065E-04                   DRN =       3.6308E-07     DRN-0                            
                 API =           0.0000                   API =           0.0000     MAR                              
                 CHD =       2.0705E-08                   CHD =           0.0000     CHD_0                            

           TOTAL OUT =      139074.2284             TOTAL OUT =         243.8261

            IN - OUT =      -1.0911E-06              IN - OUT =      -3.0643E-09

 PERCENT DISCREPANCY =          -0.00     PERCENT DISCREPANCY =          -0.00




         TIME SUMMARY AT END OF TIME STEP   43 IN STRESS PERIOD    2
                    SECONDS     MINUTES      HOURS       DAYS        YEARS
                    -----------------------------------------------------------
   TIME STEP LENGTH 8.64000E+05  14400.      240.00      10.000     2.73785E-02
 STRESS PERIOD TIME 3.71520E+07 6.19200E+05  10320.      430.00      1.1773    
         TOTAL TIME 3.72384E+07 6.20640E+05  10344.      431.00      1.1800    


end timestep


start timestep kper="2" kstp="44" mode="normal"

 UBDSV1 SAVING           STO-SS ON UNIT   1099 AT TIME STEP     44, STRESS PERIOD      2
 UBDSV1 SAVING           STO-SY ON UNIT   1099 AT TIME STEP     44, STRESS PERIOD      2
 UBDSV1 SAVING     FLOW-JA-FACE ON UNIT   1099 AT TIME STEP     44, STRESS PERIOD      2
 UBDSV06 SAVING       DATA-SPDIS IN MODEL GWF              PACKAGE NPF             CONNECTED TO MODEL GWF              PACKAGE NPF              ON UNIT   1099 AT TIME STEP     44, STRESS PERIOD      2
 UBDSV06 SAVING              WEL IN MODEL GWF              PACKAGE GWF             CONNECTED TO MODEL GWF              PACKAGE WEL-1            ON UNIT   1099 AT TIME STEP     44, STRESS PERIOD      2
 UBDSV06 SAVING              DRN IN MODEL GWF              PACKAGE GWF             CONNECTED TO MODEL GWF              PACKAGE DRN-0            ON UNIT   1099 AT TIME STEP     44, STRESS PERIOD      2
 UBDSV06 SAVING              API IN MODEL GWF              PACKAGE GWF             CONNECTED TO MODEL GWF              PACKAGE MAR              ON UNIT   1099 AT TIME STEP     44, STRESS PERIOD      2
 UBDSV06 SAVING              CHD IN MODEL GWF              PACKAGE GWF             CONNECTED TO MODEL GWF              PACKAGE CHD_0            ON UNIT   1099 AT TIME STEP     44, STRESS PERIOD      2

    CALCULATED INTERCELL FLOW FOR PERIOD 2 STEP 44
(1,1,1): (1,1,2) 1.551824E-02 (1,2,1) 1.824558E-02
(1,1,2): (1,1,1) -1.551824E-02 (1,1,3) 3.397920E-02 (1,2,2) 3.718716E-02
(1,1,3): (1,1,2) -3.397920E-02 (1,1,4) 5.071835E-02 (1,2,3) 8.128316E-02
(1,1,4): (1,1,3) -5.071835E-02 (1,1,5) 5.028089E-02 (1,2,4) 0.152676
(1,1,5): (1,1,4) -5.028089E-02 (1,1,6) 2.045882E-02 (1,2,5) 0.229039
(1,1,6): (1,1,5) -2.045882E-02 (1,1,7) -2.010056E-02 (1,2,6) 0.258458
(1,1,7): (1,1,6) 2.010056E-02 (1,1,8) -4.932895E-02 (1,2,7) 0.229384
(1,1,8): (1,1,7) 4.932895E-02 (1,1,9) -4.795304E-02 (1,2,8) 0.153979
(1,1,9): (1,1,8) 4.795304E-02 (1,1,10) -2.684865E-02 (1,2,9) 8.552179E-02
(1,1,10): (1,1,9) 2.684865E-02 (1,2,10) 4.948736E-02
(1,2,1): (1,1,1) -1.824558E-02 (1,2,2) 3.445930E-02 (1,3,1) 4.176449E-02
(1,2,2): (1,1,2) -3.718716E-02 (1,2,1) -3.445930E-02 (1,2,3) 7.807380E-02 (1,3,2) 8.852438E-02
(1,2,3): (1,1,3) -8.128316E-02 (1,2,2) -7.807380E-02 (1,2,4) 0.122089 (1,3,3) 0.202947
(1,2,4): (1,1,4) -0.152676 (1,2,3) -0.122089 (1,2,5) 0.126567 (1,3,4) 0.402798
(1,2,5): (1,1,5) -0.229039 (1,2,4) -0.126567 (1,2,6) 4.981682E-02 (1,3,5) 0.636013
(1,2,6): (1,1,6) -0.258458 (1,2,5) -4.981682E-02 (1,2,7) -4.911410E-02 (1,3,6) 0.717002
(1,2,7): (1,1,7) -0.229384 (1,2,6) 4.911410E-02 (1,2,8) -0.124655 (1,3,7) 0.636771
(1,2,8): (1,1,8) -0.153979 (1,2,7) 0.124655 (1,2,9) -0.116385 (1,3,8) 0.405686
(1,2,9): (1,1,9) -8.552179E-02 (1,2,8) 0.116385 (1,2,10) -6.287495E-02 (1,3,9) 0.212506
(1,2,10): (1,1,10) -4.948736E-02 (1,2,9) 6.287495E-02 (1,3,10) 0.117038
(1,3,1): (1,2,1) -4.176449E-02 (1,3,2) 8.121579E-02 (1,4,1) 6.259678E-02
(1,3,2): (1,2,2) -8.852438E-02 (1,3,1) -8.121579E-02 (1,3,3) 0.192485 (1,4,2) 0.141502
(1,3,3): (1,2,3) -0.202947 (1,3,2) -0.192485 (1,3,4) 0.321782 (1,4,3) 0.354027
(1,3,4): (1,2,4) -0.402798 (1,3,3) -0.321782 (1,3,5) 0.359153 (1,4,4) 0.787305
(1,3,5): (1,2,5) -0.636013 (1,3,4) -0.359153 (1,3,6) 0.130346 (1,4,5) 1.40412
(1,3,6): (1,2,6) -0.717002 (1,3,5) -0.130346 (1,3,7) -0.128889 (1,4,6) 1.55926
(1,3,7): (1,2,7) -0.636771 (1,3,6) 0.128889 (1,3,8) -0.355107 (1,4,7) 1.40520
(1,3,8): (1,2,8) -0.405686 (1,3,7) 0.355107 (1,3,9) -0.309382 (1,4,8) 0.791432
(1,3,9): (1,2,9) -0.212506 (1,3,8) 0.309382 (1,3,10) -0.158292 (1,4,9) 0.368002
(1,3,10): (1,2,10) -0.117038 (1,3,9) 0.158292 (1,4,10) 0.184952
(1,4,1): (1,3,1) -6.259678E-02 (1,4,2) 0.160136 (1,5,1) 4.576217E-02
(1,4,2): (1,3,2) -0.141502 (1,4,1) -0.160136 (1,4,3) 0.405116 (1,5,2) 0.117549
(1,4,3): (1,3,3) -0.354027 (1,4,2) -0.405116 (1,4,4) 0.754924 (1,5,3) 0.363181
(1,4,4): (1,3,4) -0.787305 (1,4,3) -0.754924 (1,4,5) 0.973460 (1,5,4) 1.08830
(1,4,5): (1,3,5) -1.40412 (1,4,4) -0.973460 (1,4,6) 0.283658 (1,5,5) 2.75022
(1,4,6): (1,3,6) -1.55926 (1,4,5) -0.283658 (1,4,7) -0.281128 (1,5,6) 2.82827
(1,4,7): (1,3,7) -1.40520 (1,4,6) 0.281128 (1,4,8) -0.966334 (1,5,7) 2.75101
(1,4,8): (1,3,8) -0.791432 (1,4,7) 0.966334 (1,4,9) -0.732570 (1,5,8) 1.09113
(1,4,9): (1,3,9) -0.368002 (1,4,8) 0.732570 (1,4,10) -0.341294 (1,5,9) 0.372931
(1,4,10): (1,3,10) -0.184952 (1,4,9) 0.341294 (1,5,10) 0.149873
(1,5,1): (1,4,1) -4.576217E-02 (1,5,2) 0.232004 (1,6,1) -5.402448E-02
(1,5,2): (1,4,2) -0.117549 (1,5,1) -0.232004 (1,5,3) 0.651439 (1,6,2) -0.124638
(1,5,3): (1,4,3) -0.363181 (1,5,2) -0.651439 (1,5,4) 1.48274 (1,6,3) -0.226612
(1,5,4): (1,4,4) -1.08830 (1,5,3) -1.48274 (1,5,5) 2.63366 (1,6,4) 0.256614
(1,5,5): (1,4,5) -2.75022 (1,5,4) -2.63366 (1,5,6) 0.360164 (1,6,5) 5.48046
(1,5,6): (1,4,6) -2.82827 (1,5,5) -0.360164 (1,5,7) -0.356867 (1,6,6) 4.05193
(1,5,7): (1,4,7) -2.75101 (1,5,6) 0.356867 (1,5,8) -2.62433 (1,6,7) 5.47981
(1,5,8): (1,4,8) -1.09113 (1,5,7) 2.62433 (1,5,9) -1.45323 (1,6,8) 0.253618
(1,5,9): (1,4,9) -0.372931 (1,5,8) 1.45323 (1,5,10) -0.564769 (1,6,9) -0.238123
(1,5,10): (1,4,10) -0.149873 (1,5,9) 0.564769 (1,6,10) -0.164024
(1,6,1): (1,5,1) 5.402448E-02 (1,6,2) 0.161316 (1,7,1) -0.189645
(1,6,2): (1,5,2) 0.124638 (1,6,1) -0.161316 (1,6,3) 0.549044 (1,7,2) -0.552637
(1,6,3): (1,5,3) 0.226612 (1,6,2) -0.549044 (1,6,4) 1.97338 (1,7,3) -1.84997
(1,6,4): (1,5,4) -0.256614 (1,6,3) -1.97338 (1,6,5) 7.96438 (1,7,4) -6.06778
(1,6,5): (1,5,5) -5.48046 (1,6,4) -7.96438 (1,6,6) -1.01812 (1,7,5) -20.2744
(1,6,6): (1,5,6) -4.05193 (1,6,5) 1.01812 (1,6,7) 1.02082 (1,7,6) -32.6078
(1,6,7): (1,5,7) -5.47981 (1,6,6) -1.02082 (1,6,8) -7.95716 (1,7,7) -20.2768
(1,6,8): (1,5,8) -0.253618 (1,6,7) 7.95716 (1,6,9) -1.95239 (1,7,8) -6.07721
(1,6,9): (1,5,9) 0.238123 (1,6,8) 1.95239 (1,6,10) -0.490437 (1,7,9) -1.88725
(1,6,10): (1,5,10) 0.164024 (1,6,9) 0.490437 (1,7,10) -0.693844
(1,7,1): (1,6,1) 0.189645 (1,7,2) -0.200669 (1,8,1) -0.126006
(1,7,2): (1,6,2) 0.552637 (1,7,1) 0.200669 (1,7,3) -0.737191 (1,8,2) -0.373498
(1,7,3): (1,6,3) 1.84997 (1,7,2) 0.737191 (1,7,4) -2.12847 (1,8,3) -1.30493
(1,7,4): (1,6,4) 6.06778 (1,7,3) 2.12847 (1,7,5) -5.11979 (1,8,4) -4.52971
(1,7,5): (1,6,5) 20.2744 (1,7,4) 5.11979 (1,7,6) -11.3446 (1,8,5) -15.6616
(1,7,6): (1,6,6) 32.6078 (1,7,5) 11.3446 (1,7,7) 11.3453 (1,8,6) -56.5642
(1,7,7): (1,6,7) 20.2768 (1,7,6) -11.3453 (1,7,8) 5.11967 (1,8,7) -15.6632
(1,7,8): (1,6,8) 6.07721 (1,7,7) -5.11967 (1,7,9) 2.12124 (1,8,8) -4.53595
(1,7,9): (1,6,9) 1.88725 (1,7,8) -2.12124 (1,7,10) 0.691437 (1,8,9) -1.32945
(1,7,10): (1,6,10) 0.693844 (1,7,9) -0.691437 (1,8,10) -0.466535
(1,8,1): (1,7,1) 0.126006 (1,8,2) -0.448346 (1,9,1) 0.102417
(1,8,2): (1,7,2) 0.373498 (1,8,1) 0.448346 (1,8,3) -1.67207 (1,9,2) 0.338796
(1,8,3): (1,7,3) 1.30493 (1,8,2) 1.67207 (1,8,4) -5.38118 (1,9,3) 1.25606
(1,8,4): (1,7,4) 4.52971 (1,8,3) 5.38118 (1,8,5) -16.3274 (1,9,4) 4.48007
(1,8,5): (1,7,5) 15.6616 (1,8,4) 16.3274 (1,8,6) -49.6854 (1,9,5) 15.6358
(1,8,6): (1,7,6) 56.5642 (1,8,5) 49.6854 (1,8,7) 49.6841 (1,9,6) 56.5445
(1,8,7): (1,7,7) 15.6632 (1,8,6) -49.6841 (1,8,8) 16.3218 (1,9,7) 15.6366
(1,8,8): (1,7,8) 4.53595 (1,8,7) -16.3218 (1,8,9) 5.35445 (1,9,8) 4.48395
(1,8,9): (1,7,9) 1.32945 (1,8,8) -5.35445 (1,8,10) 1.55633 (1,9,9) 1.27432
(1,8,10): (1,7,10) 0.466535 (1,8,9) -1.55633 (1,9,10) 0.417738
(1,9,1): (1,8,1) -0.102417 (1,9,2) -0.211708 (1,10,1) 0.175699
(1,9,2): (1,8,2) -0.338796 (1,9,1) 0.211708 (1,9,3) -0.750960 (1,10,2) 0.531878
(1,9,3): (1,8,3) -1.25606 (1,9,2) 0.750960 (1,9,4) -2.12759 (1,10,3) 1.82077
(1,9,4): (1,8,4) -4.48007 (1,9,3) 2.12759 (1,9,5) -5.09287 (1,10,4) 6.04309
(1,9,5): (1,8,5) -15.6358 (1,9,4) 5.09287 (1,9,6) -11.3319 (1,10,5) 20.3019
(1,9,6): (1,8,6) -56.5445 (1,9,5) 11.3319 (1,9,7) 11.3318 (1,10,6) 32.6484
(1,9,7): (1,8,7) -15.6366 (1,9,6) -11.3318 (1,9,8) 5.09108 (1,10,7) 20.3037
(1,9,8): (1,8,8) -4.48395 (1,9,7) -5.09108 (1,9,9) 2.11636 (1,10,8) 6.05107
(1,9,9): (1,8,9) -1.27432 (1,9,8) -2.11636 (1,9,10) 0.697303 (1,10,9) 1.85430
(1,9,10): (1,8,10) -0.417738 (1,9,9) -0.697303 (1,10,10) 0.664642
(1,10,1): (1,9,1) -0.175699 (1,10,2) 0.143544 (1,11,1) 5.275206E-02
(1,10,2): (1,9,2) -0.531878 (1,10,1) -0.143544 (1,10,3) 0.527220 (1,11,2) 0.120434
(1,10,3): (1,9,3) -1.82077 (1,10,2) -0.527220 (1,10,4) 1.97959 (1,11,3) 0.212700
(1,10,4): (1,9,4) -6.04309 (1,10,3) -1.97959 (1,10,5) 8.04148 (1,11,4) -0.296505
(1,10,5): (1,9,5) -20.3019 (1,10,4) -8.04148 (1,10,6) -0.998412 (1,11,5) -5.58807
(1,10,6): (1,9,6) -32.6484 (1,10,5) 0.998412 (1,10,7) 0.999959 (1,11,6) -4.17514
(1,10,7): (1,9,7) -20.3037 (1,10,6) -0.999959 (1,10,8) -8.03693 (1,11,7) -5.58743
(1,10,8): (1,9,8) -6.05107 (1,10,7) 8.03693 (1,10,9) -1.96492 (1,11,8) -0.293602
(1,10,9): (1,9,9) -1.85430 (1,10,8) 1.96492 (1,10,10) -0.481207 (1,11,9) 0.223927
(1,10,10): (1,9,10) -0.664642 (1,10,9) 0.481207 (1,11,10) 0.158750
(1,11,1): (1,10,1) -5.275206E-02 (1,11,2) 0.211287 (1,12,1) -3.708008E-02
(1,11,2): (1,10,2) -0.120434 (1,11,1) -0.211287 (1,11,3) 0.619852 (1,12,2) -0.105983
(1,11,3): (1,10,3) -0.212700 (1,11,2) -0.619852 (1,11,4) 1.46264 (1,12,3) -0.350892
(1,11,4): (1,10,4) 0.296505 (1,11,3) -1.46264 (1,11,5) 2.64305 (1,12,4) -1.08711
(1,11,5): (1,10,5) 5.58807 (1,11,4) -2.64305 (1,11,6) 0.363429 (1,12,5) -2.77645
(1,11,6): (1,10,6) 4.17514 (1,11,5) -0.363429 (1,11,7) -0.361278 (1,12,6) -2.86460
(1,11,7): (1,10,7) 5.58743 (1,11,6) 0.361278 (1,11,8) -2.63636 (1,12,7) -2.77694
(1,11,8): (1,10,8) 0.293602 (1,11,7) 2.63636 (1,11,9) -1.43963 (1,12,8) -1.08905
(1,11,9): (1,10,9) -0.223927 (1,11,8) 1.43963 (1,11,10) -0.546587 (1,12,9) -0.358291
(1,11,10): (1,10,10) -0.158750 (1,11,9) 0.546587 (1,12,10) -0.133265
(1,12,1): (1,11,1) 3.708008E-02 (1,12,2) 0.142312 (1,13,1) -5.104734E-02
(1,12,2): (1,11,2) 0.105983 (1,12,1) -0.142312 (1,12,3) 0.374299 (1,13,2) -0.123865
(1,12,3): (1,11,3) 0.350892 (1,12,2) -0.374299 (1,12,4) 0.723805 (1,13,3) -0.327232
(1,12,4): (1,11,4) 1.08711 (1,12,3) -0.723805 (1,12,5) 0.955725 (1,13,4) -0.754698
(1,12,5): (1,11,5) 2.77645 (1,12,4) -0.955725 (1,12,6) 0.277062 (1,13,5) -1.37321
(1,12,6): (1,11,6) 2.86460 (1,12,5) -0.277062 (1,12,7) -0.275388 (1,13,6) -1.52939
(1,12,7): (1,11,7) 2.77694 (1,12,6) 0.275388 (1,12,8) -0.950591 (1,13,7) -1.37394
(1,12,8): (1,11,8) 1.08905 (1,12,7) 0.950591 (1,12,9) -0.706445 (1,13,8) -0.757698
(1,12,9): (1,11,9) 0.358291 (1,12,8) 0.706445 (1,12,10) -0.321148 (1,13,9) -0.338167
(1,12,10): (1,11,10) 0.133265 (1,12,9) 0.321148 (1,13,10) -0.160320
(1,13,1): (1,12,1) 5.104734E-02 (1,13,2) 6.948105E-02 (1,14,1) -3.292864E-02
(1,13,2): (1,12,2) 0.123865 (1,13,1) -6.948105E-02 (1,13,3) 0.170837 (1,14,2) -7.432568E-02
(1,13,3): (1,12,3) 0.327232 (1,13,2) -0.170837 (1,13,4) 0.296467 (1,14,3) -0.179263
(1,13,4): (1,12,4) 0.754698 (1,13,3) -0.296467 (1,13,5) 0.339658 (1,14,4) -0.368931
(1,13,5): (1,12,5) 1.37321 (1,13,4) -0.339658 (1,13,6) 0.122695 (1,14,5) -0.595330
(1,13,6): (1,12,6) 1.52939 (1,13,5) -0.122695 (1,13,7) -0.121749 (1,14,6) -0.673751
(1,13,7): (1,12,7) 1.37394 (1,13,6) 0.121749 (1,13,8) -0.336816 (1,14,7) -0.595839
(1,13,8): (1,12,8) 0.757698 (1,13,7) 0.336816 (1,13,9) -0.287122 (1,14,8) -0.370989
(1,13,9): (1,12,9) 0.338167 (1,13,8) 0.287122 (1,13,10) -0.143330 (1,14,9) -0.186535
(1,13,10): (1,12,10) 0.160320 (1,13,9) 0.143330 (1,14,10) -9.740519E-02
(1,14,1): (1,13,1) 3.292864E-02 (1,14,2) 2.808601E-02 (1,15,1) -1.389703E-02
(1,14,2): (1,13,2) 7.432568E-02 (1,14,1) -2.808601E-02 (1,14,3) 6.590861E-02 (1,15,2) -3.004121E-02
(1,14,3): (1,13,3) 0.179263 (1,14,2) -6.590861E-02 (1,14,4) 0.106935 (1,15,3) -6.892117E-02
(1,14,4): (1,13,4) 0.368931 (1,14,3) -0.106935 (1,14,5) 0.113824 (1,15,4) -0.134078
(1,14,5): (1,13,5) 0.595330 (1,14,4) -0.113824 (1,14,6) 4.469397E-02 (1,15,5) -0.205462
(1,14,6): (1,13,6) 0.673751 (1,14,5) -4.469397E-02 (1,14,7) -4.425419E-02 (1,15,6) -0.232911
(1,14,7): (1,13,7) 0.595839 (1,14,6) 4.425419E-02 (1,14,8) -0.112534 (1,15,7) -0.205689
(1,14,8): (1,13,8) 0.370989 (1,14,7) 0.112534 (1,14,9) -0.102820 (1,15,8) -0.134982
(1,14,9): (1,13,9) 0.186535 (1,14,8) 0.102820 (1,14,10) -5.423867E-02 (1,15,9) -7.204561E-02
(1,14,10): (1,13,10) 9.740519E-02 (1,14,9) 5.423867E-02 (1,15,10) -3.965171E-02
(1,15,1): (1,14,1) 1.389703E-02 (1,15,2) 1.194214E-02
(1,15,2): (1,14,2) 3.004121E-02 (1,15,1) -1.194214E-02 (1,15,3) 2.702982E-02
(1,15,3): (1,14,3) 6.892117E-02 (1,15,2) -2.702982E-02 (1,15,4) 4.179604E-02
(1,15,4): (1,14,4) 0.134078 (1,15,3) -4.179604E-02 (1,15,5) 4.250389E-02
(1,15,5): (1,14,5) 0.205462 (1,15,4) -4.250389E-02 (1,15,6) 1.729689E-02
(1,15,6): (1,14,6) 0.232911 (1,15,5) -1.729689E-02 (1,15,7) -1.708283E-02
(1,15,7): (1,14,7) 0.205689 (1,15,6) 1.708283E-02 (1,15,8) -4.189300E-02
(1,15,8): (1,14,8) 0.134982 (1,15,7) 4.189300E-02 (1,15,9) -3.990429E-02
(1,15,9): (1,14,9) 7.204561E-02 (1,15,8) 3.990429E-02 (1,15,10) -2.185052E-02
(1,15,10): (1,14,10) 3.965171E-02 (1,15,9) 2.185052E-02

 WEL PACKAGE (WEL-1) FLOW RATES   PERIOD      2   STEP       44
 ----------------------------------------------------------------------------------------
   NUMBER   CELLID                    RATE       NAME                                    
 ----------------------------------------------------------------------------------------
     1      (1,8,6)              -212.77612      WEL                                     
 ----------------------------------------------------------------------------------------




 DRN PACKAGE (DRN-0) FLOW RATES   PERIOD      2   STEP       44
 ----------------------------------------------------------------------------------------
   NUMBER   CELLID                    RATE       NAME                                    
 ----------------------------------------------------------------------------------------
     1      (1,1,1)               0.0000000      SURF                                    
     2      (1,1,2)               0.0000000      SURF                                    
     3      (1,1,3)               0.0000000      SURF                                    
     4      (1,1,4)               0.0000000      SURF                                    
     5      (1,1,5)               0.0000000      SURF                                    
     6      (1,1,6)               0.0000000      SURF                                    
     7      (1,1,7)               0.0000000      SURF                                    
     8      (1,1,8)               0.0000000      SURF                                    
     9      (1,1,9)               0.0000000      SURF                                    
     10     (1,1,10)              0.0000000      SURF                                    
     11     (1,2,1)               0.0000000      SURF                                    
     12     (1,2,2)               0.0000000      SURF                                    
     13     (1,2,3)               0.0000000      SURF                                    
     14     (1,2,4)               0.0000000      SURF                                    
     15     (1,2,5)               0.0000000      SURF                                    
     16     (1,2,6)               0.0000000      SURF                                    
     17     (1,2,7)               0.0000000      SURF                                    
     18     (1,2,8)               0.0000000      SURF                                    
     19     (1,2,9)               0.0000000      SURF                                    
     20     (1,2,10)              0.0000000      SURF                                    
     21     (1,3,1)               0.0000000      SURF                                    
     22     (1,3,2)               0.0000000      SURF                                    
     23     (1,3,3)               0.0000000      SURF                                    
     24     (1,3,4)               0.0000000      SURF                                    
     25     (1,3,5)               0.0000000      SURF                                    
     26     (1,3,6)               0.0000000      SURF                                    
     27     (1,3,7)               0.0000000      SURF                                    
     28     (1,3,8)               0.0000000      SURF                                    
     29     (1,3,9)               0.0000000      SURF                                    
     30     (1,3,10)              0.0000000      SURF                                    
     31     (1,4,1)               0.0000000      SURF                                    
     32     (1,4,2)               0.0000000      SURF                                    
     33     (1,4,3)               0.0000000      SURF                                    
     34     (1,4,4)               0.0000000      SURF                                    
     35     (1,4,5)               0.0000000      SURF                                    
     36     (1,4,6)               0.0000000      SURF                                    
     37     (1,4,7)               0.0000000      SURF                                    
     38     (1,4,8)               0.0000000      SURF                                    
     39     (1,4,9)               0.0000000      SURF                                    
     40     (1,4,10)              0.0000000      SURF                                    
     41     (1,5,1)               0.0000000      SURF                                    
     42     (1,5,2)               0.0000000      SURF                                    
     43     (1,5,3)               0.0000000      SURF                                    
     44     (1,5,4)               0.0000000      SURF                                    
     45     (1,5,5)               0.0000000      SURF                                    
     46     (1,5,6)               0.0000000      SURF                                    
     47     (1,5,7)               0.0000000      SURF                                    
     48     (1,5,8)               0.0000000      SURF                                    
     49     (1,5,9)               0.0000000      SURF                                    
     50     (1,5,10)              0.0000000      SURF                                    
     51     (1,6,1)               0.0000000      SURF                                    
     52     (1,6,2)               0.0000000      SURF                                    
     53     (1,6,3)               0.0000000      SURF                                    
     54     (1,6,4)               0.0000000      SURF                                    
     55     (1,6,5)               0.0000000      SURF                                    
     56     (1,6,6)               0.0000000      SURF                                    
     57     (1,6,7)              -9.32777766E-09 SURF                                    
     58     (1,6,8)               0.0000000      SURF                                    
     59     (1,6,9)               0.0000000      SURF                                    
     60     (1,6,10)              0.0000000      SURF                                    
     61     (1,7,1)               0.0000000      SURF                                    
     62     (1,7,2)               0.0000000      SURF                                    
     63     (1,7,3)               0.0000000      SURF                                    
     64     (1,7,4)               0.0000000      SURF                                    
     65     (1,7,5)               0.0000000      SURF                                    
     66     (1,7,6)               0.0000000      SURF                                    
     67     (1,7,7)               0.0000000      SURF                                    
     68     (1,7,8)               0.0000000      SURF                                    
     69     (1,7,9)               0.0000000      SURF                                    
     70     (1,7,10)              0.0000000      SURF                                    
     71     (1,8,1)               0.0000000      SURF                                    
     72     (1,8,2)               0.0000000      SURF                                    
     73     (1,8,3)               0.0000000      SURF                                    
     74     (1,8,4)               0.0000000      SURF                                    
     75     (1,8,5)               0.0000000      SURF                                    
     76     (1,8,6)               0.0000000      SURF                                    
     77     (1,8,7)               0.0000000      SURF                                    
     78     (1,8,8)               0.0000000      SURF                                    
     79     (1,8,9)               0.0000000      SURF                                    
     80     (1,8,10)              0.0000000      SURF                                    
     81     (1,9,1)               0.0000000      SURF                                    
     82     (1,9,2)               0.0000000      SURF                                    
     83     (1,9,3)               0.0000000      SURF                                    
     84     (1,9,4)               0.0000000      SURF                                    
     85     (1,9,5)               0.0000000      SURF                                    
     86     (1,9,6)               0.0000000      SURF                                    
     87     (1,9,7)               0.0000000      SURF                                    
     88     (1,9,8)               0.0000000      SURF                                    
     89     (1,9,9)               0.0000000      SURF                                    
     90     (1,9,10)              0.0000000      SURF                                    
     91     (1,10,1)              0.0000000      SURF                                    
     92     (1,10,2)              0.0000000      SURF                                    
     93     (1,10,3)              0.0000000      SURF                                    
     94     (1,10,4)              0.0000000      SURF                                    
     95     (1,10,5)              0.0000000      SURF                                    
     96     (1,10,6)              0.0000000      SURF                                    
     97     (1,10,7)             -3.47892637E-07 SURF                                    
     98     (1,10,8)              0.0000000      SURF                                    
     99     (1,10,9)              0.0000000      SURF                                    
    100     (1,10,10)             0.0000000      SURF                                    
    101     (1,11,1)              0.0000000      SURF                                    
    102     (1,11,2)              0.0000000      SURF                                    
    103     (1,11,3)              0.0000000      SURF                                    
    104     (1,11,4)              0.0000000      SURF                                    
    105     (1,11,5)              0.0000000      SURF                                    
    106     (1,11,6)              0.0000000      SURF                                    
    107     (1,11,7)              0.0000000      SURF                                    
    108     (1,11,8)              0.0000000      SURF                                    
    109     (1,11,9)              0.0000000      SURF                                    
    110     (1,11,10)             0.0000000      SURF                                    
    111     (1,12,1)              0.0000000      SURF                                    
    112     (1,12,2)              0.0000000      SURF                                    
    113     (1,12,3)              0.0000000      SURF                                    
    114     (1,12,4)              0.0000000      SURF                                    
    115     (1,12,5)              0.0000000      SURF                                    
    116     (1,12,6)              0.0000000      SURF                                    
    117     (1,12,7)              0.0000000      SURF                                    
    118     (1,12,8)              0.0000000      SURF                                    
    119     (1,12,9)              0.0000000      SURF                                    
    120     (1,12,10)             0.0000000      SURF                                    
    121     (1,13,1)              0.0000000      SURF                                    
    122     (1,13,2)              0.0000000      SURF                                    
    123     (1,13,3)              0.0000000      SURF                                    
    124     (1,13,4)              0.0000000      SURF                                    
    125     (1,13,5)              0.0000000      SURF                                    
    126     (1,13,6)              0.0000000      SURF                                    
    127     (1,13,7)              0.0000000      SURF                                    
    128     (1,13,8)              0.0000000      SURF                                    
    129     (1,13,9)              0.0000000      SURF                                    
    130     (1,13,10)             0.0000000      SURF                                    
    131     (1,14,1)              0.0000000      SURF                                    
    132     (1,14,2)              0.0000000      SURF                                    
    133     (1,14,3)              0.0000000      SURF                                    
    134     (1,14,4)              0.0000000      SURF                                    
    135     (1,14,5)              0.0000000      SURF                                    
    136     (1,14,6)              0.0000000      SURF                                    
    137     (1,14,7)              0.0000000      SURF                                    
    138     (1,14,8)              0.0000000      SURF                                    
    139     (1,14,9)              0.0000000      SURF                                    
    140     (1,14,10)             0.0000000      SURF                                    
    141     (1,15,1)              0.0000000      SURF                                    
    142     (1,15,2)              0.0000000      SURF                                    
    143     (1,15,3)              0.0000000      SURF                                    
    144     (1,15,4)              0.0000000      SURF                                    
    145     (1,15,5)              0.0000000      SURF                                    
    146     (1,15,6)              0.0000000      SURF                                    
    147     (1,15,7)              0.0000000      SURF                                    
    148     (1,15,8)              0.0000000      SURF                                    
    149     (1,15,9)              0.0000000      SURF                                    
    150     (1,15,10)             0.0000000      SURF                                    
 ----------------------------------------------------------------------------------------




 API PACKAGE (MAR) FLOW RATES   PERIOD      2   STEP       44
 -----------------------------------------------
   NUMBER   CELLID                    RATE      
 -----------------------------------------------
     1      (1,6,5)               34.734585     
     2      (1,6,6)               34.734585     
     3      (1,6,7)               34.734585     
     4      (1,10,5)              34.928058     
     5      (1,10,6)              34.928058     
     6      (1,10,7)              34.928058     
 -----------------------------------------------



1
  HEAD IN LAYER   1 AT END OF TIME STEP  44 IN STRESS PERIOD    2
  ---------------------------------------------------------------------------

            1           2           3           4           5           6           7           8           9          10
 ........................................................................................................................
   1   1.7066E-03  3.2579E-03  6.6536E-03  1.1719E-02  1.6739E-02  1.8781E-02  1.6775E-02  1.1850E-02  7.0606E-03  4.3777E-03
   2   3.5305E-03  6.9740E-03  1.4770E-02  2.6946E-02  3.9553E-02  4.4512E-02  3.9623E-02  2.7206E-02  1.5599E-02  9.3218E-03
   3   7.7037E-03  1.5812E-02  3.4994E-02  6.6958E-02  0.1025      0.1154      0.1027      6.7503E-02  3.6772E-02  2.1001E-02
   4   1.3955E-02  2.9920E-02  7.0150E-02  0.1446      0.2396      0.2673      0.2399      0.1455      7.3305E-02  3.9424E-02
   5   1.8522E-02  4.1627E-02  0.1061      0.2507      0.5015      0.5357      0.5018      0.2519      0.1102      5.4330E-02
   6   1.3130E-02  2.9215E-02  8.3663E-02  0.2757      0.9998      0.9072       1.000      0.2766      8.6639E-02  3.8016E-02
   7  -5.8096E-03 -2.5888E-02 -9.9799E-02 -0.3148     -0.8434      -2.082     -0.8433     -0.3147     -0.1005     -3.1105E-02
   8  -1.8418E-02 -6.3335E-02 -0.2316     -0.7825      -2.554      -9.226      -2.554     -0.7831     -0.2348     -7.7904E-02
   9  -8.1674E-03 -2.9356E-02 -0.1047     -0.3197     -0.8458      -2.084     -0.8458     -0.3199     -0.1060     -3.5980E-02
  10   9.3860E-03  2.3706E-02  7.6031E-02  0.2688      0.9999      0.9091       1.000      0.2694      7.8032E-02  3.0284E-02
  11   1.4653E-02  3.5707E-02  9.7096E-02  0.2399      0.4918      0.5264      0.4921      0.2408      0.1002      4.6086E-02
  12   1.0951E-02  2.5146E-02  6.2344E-02  0.1338      0.2272      0.2542      0.2274      0.1344      6.4729E-02  3.2821E-02
  13   5.8517E-03  1.2791E-02  2.9824E-02  5.9296E-02  9.2949E-02  0.1051      9.3042E-02  5.9671E-02  3.1130E-02  1.6841E-02
  14   2.5608E-03  5.3679E-03  1.1951E-02  2.2620E-02  3.3964E-02  3.8416E-02  3.4008E-02  2.2793E-02  1.2534E-02  7.1169E-03
  15   1.1714E-03  2.3654E-03  5.0670E-03  9.2427E-03  1.3487E-02  1.5214E-02  1.3509E-02  9.3251E-03  5.3384E-03  3.1545E-03

 HEAD WILL BE SAVED ON UNIT 1100 AT END OF TIME STEP   44, STRESS PERIOD    2


  VOLUME BUDGET FOR ENTIRE MODEL AT END OF TIME STEP   44, STRESS PERIOD   2
  ---------------------------------------------------------------------------------------------------

     CUMULATIVE VOLUME      L**3       RATES FOR THIS TIME STEP      L**3/T          PACKAGE NAME    
     ------------------                 ------------------------                     ----------------

           IN:                                      IN:
           ---                                      ---
              STO-SS =          20.8167                STO-SS =       1.5500E-02     STORAGE                          
              STO-SY =       52736.5605                STO-SY =          33.9228     STORAGE                          
                 WEL =           0.0000                   WEL =           0.0000     WEL-1                            
                 DRN =           0.0000                   DRN =           0.0000     DRN-0                            
                 API =       88746.1137                   API =         208.9879     MAR                              
                 CHD =       2.0279E-08                   CHD =           0.0000     CHD_0                            

            TOTAL IN =      141503.4909              TOTAL IN =         242.9262

          OUT:                                     OUT:
          ----                                     ----
              STO-SS =          17.0662                STO-SS =       1.5286E-02     STORAGE                          
              STO-SY =       33248.3076                STO-SY =          30.1348     STORAGE                          
                 WEL =      108238.1169                   WEL =         212.7761     WEL-1                            
                 DRN =       1.4422E-04                   DRN =       3.5722E-07     DRN-0                            
                 API =           0.0000                   API =           0.0000     MAR                              
                 CHD =       2.0705E-08                   CHD =           0.0000     CHD_0                            

           TOTAL OUT =      141503.4909             TOTAL OUT =         242.9262

            IN - OUT =      -1.1213E-06              IN - OUT =      -3.0213E-09

 PERCENT DISCREPANCY =          -0.00     PERCENT DISCREPANCY =          -0.00




         TIME SUMMARY AT END OF TIME STEP   44 IN STRESS PERIOD    2
                    SECONDS     MINUTES      HOURS       DAYS        YEARS
                    -----------------------------------------------------------
   TIME STEP LENGTH 8.64000E+05  14400.      240.00      10.000     2.73785E-02
 STRESS PERIOD TIME 3.80160E+07 6.33600E+05  10560.      440.00      1.2047    
         TOTAL TIME 3.81024E+07 6.35040E+05  10584.      441.00      1.2074    


end timestep


start timestep kper="2" kstp="45" mode="normal"

 UBDSV1 SAVING           STO-SS ON UNIT   1099 AT TIME STEP     45, STRESS PERIOD      2
 UBDSV1 SAVING           STO-SY ON UNIT   1099 AT TIME STEP     45, STRESS PERIOD      2
 UBDSV1 SAVING     FLOW-JA-FACE ON UNIT   1099 AT TIME STEP     45, STRESS PERIOD      2
 UBDSV06 SAVING       DATA-SPDIS IN MODEL GWF              PACKAGE NPF             CONNECTED TO MODEL GWF              PACKAGE NPF              ON UNIT   1099 AT TIME STEP     45, STRESS PERIOD      2
 UBDSV06 SAVING              WEL IN MODEL GWF              PACKAGE GWF             CONNECTED TO MODEL GWF              PACKAGE WEL-1            ON UNIT   1099 AT TIME STEP     45, STRESS PERIOD      2
 UBDSV06 SAVING              DRN IN MODEL GWF              PACKAGE GWF             CONNECTED TO MODEL GWF              PACKAGE DRN-0            ON UNIT   1099 AT TIME STEP     45, STRESS PERIOD      2
 UBDSV06 SAVING              API IN MODEL GWF              PACKAGE GWF             CONNECTED TO MODEL GWF              PACKAGE MAR              ON UNIT   1099 AT TIME STEP     45, STRESS PERIOD      2
 UBDSV06 SAVING              CHD IN MODEL GWF              PACKAGE GWF             CONNECTED TO MODEL GWF              PACKAGE CHD_0            ON UNIT   1099 AT TIME STEP     45, STRESS PERIOD      2

    CALCULATED INTERCELL FLOW FOR PERIOD 2 STEP 45
(1,1,1): (1,1,2) 1.664531E-02 (1,2,1) 1.948047E-02
(1,1,2): (1,1,1) -1.664531E-02 (1,1,3) 3.614637E-02 (1,2,2) 3.916015E-02
(1,1,3): (1,1,2) -3.614637E-02 (1,1,4) 5.347124E-02 (1,2,3) 8.463583E-02
(1,1,4): (1,1,3) -5.347124E-02 (1,1,5) 5.265526E-02 (1,2,4) 0.157714
(1,1,5): (1,1,4) -5.265526E-02 (1,1,6) 2.140265E-02 (1,2,5) 0.235475
(1,1,6): (1,1,5) -2.140265E-02 (1,1,7) -2.099218E-02 (1,2,6) 0.265420
(1,1,7): (1,1,6) 2.099218E-02 (1,1,8) -5.158467E-02 (1,2,7) 0.235857
(1,1,8): (1,1,7) 5.158467E-02 (1,1,9) -5.041288E-02 (1,2,8) 0.159136
(1,1,9): (1,1,8) 5.041288E-02 (1,1,10) -2.838227E-02 (1,2,9) 8.919502E-02
(1,1,10): (1,1,9) 2.838227E-02 (1,2,10) 5.220863E-02
(1,2,1): (1,1,1) -1.948047E-02 (1,2,2) 3.632443E-02 (1,3,1) 4.397124E-02
(1,2,2): (1,1,2) -3.916015E-02 (1,2,1) -3.632443E-02 (1,2,3) 8.162068E-02 (1,3,2) 9.193885E-02
(1,2,3): (1,1,3) -8.463583E-02 (1,2,2) -8.162068E-02 (1,2,4) 0.126527 (1,3,3) 0.208536
(1,2,4): (1,1,4) -0.157714 (1,2,3) -0.126527 (1,2,5) 0.130336 (1,3,4) 0.410941
(1,2,5): (1,1,5) -0.235475 (1,2,4) -0.130336 (1,2,6) 5.128466E-02 (1,3,5) 0.646254
(1,2,6): (1,1,6) -0.265420 (1,2,5) -5.128466E-02 (1,2,7) -5.049313E-02 (1,3,6) 0.727984
(1,2,7): (1,1,7) -0.235857 (1,2,6) 5.049313E-02 (1,2,8) -0.128223 (1,3,7) 0.647081
(1,2,8): (1,1,8) -0.159136 (1,2,7) 0.128223 (1,2,9) -0.120327 (1,3,8) 0.414049
(1,2,9): (1,1,9) -8.919502E-02 (1,2,8) 0.120327 (1,2,10) -6.535989E-02 (1,3,9) 0.218676
(1,2,10): (1,1,10) -5.220863E-02 (1,2,9) 6.535989E-02 (1,3,10) 0.121771
(1,3,1): (1,2,1) -4.397124E-02 (1,3,2) 8.428838E-02 (1,4,1) 6.457531E-02
(1,3,2): (1,2,2) -9.193885E-02 (1,3,1) -8.428838E-02 (1,3,3) 0.198206 (1,4,2) 0.144160
(1,3,3): (1,2,3) -0.208536 (1,3,2) -0.198206 (1,3,4) 0.328768 (1,4,3) 0.357649
(1,3,4): (1,2,4) -0.410941 (1,3,3) -0.328768 (1,3,5) 0.365005 (1,4,4) 0.791892
(1,3,5): (1,2,5) -0.646254 (1,3,4) -0.365005 (1,3,6) 0.132544 (1,4,5) 1.40992
(1,3,6): (1,2,6) -0.727984 (1,3,5) -0.132544 (1,3,7) -0.130929 (1,4,6) 1.56541
(1,3,7): (1,2,7) -0.647081 (1,3,6) 0.130929 (1,3,8) -0.360606 (1,4,7) 1.41108
(1,3,8): (1,2,8) -0.414049 (1,3,7) 0.360606 (1,3,9) -0.315511 (1,4,8) 0.796244
(1,3,9): (1,2,9) -0.218676 (1,3,8) 0.315511 (1,3,10) -0.162211 (1,4,9) 0.372171
(1,3,10): (1,2,10) -0.121771 (1,3,9) 0.162211 (1,4,10) 0.188717
(1,4,1): (1,3,1) -6.457531E-02 (1,4,2) 0.163889 (1,5,1) 4.502160E-02
(1,4,2): (1,3,2) -0.144160 (1,4,1) -0.163889 (1,4,3) 0.411808 (1,5,2) 0.115089
(1,4,3): (1,3,3) -0.357649 (1,4,2) -0.411808 (1,4,4) 0.762890 (1,5,3) 0.356979
(1,4,4): (1,3,4) -0.791892 (1,4,3) -0.762890 (1,4,5) 0.980535 (1,5,4) 1.07805
(1,4,5): (1,3,5) -1.40992 (1,4,4) -0.980535 (1,4,6) 0.286195 (1,5,5) 2.74037
(1,4,6): (1,3,6) -1.56541 (1,4,5) -0.286195 (1,4,7) -0.283433 (1,5,6) 2.81875
(1,4,7): (1,3,7) -1.41108 (1,4,6) 0.283433 (1,4,8) -0.972903 (1,5,7) 2.74117
(1,4,8): (1,3,8) -0.796244 (1,4,7) 0.972903 (1,4,9) -0.739352 (1,5,8) 1.08090
(1,4,9): (1,3,9) -0.372171 (1,4,8) 0.739352 (1,4,10) -0.345617 (1,5,9) 0.366617
(1,4,10): (1,3,10) -0.188717 (1,4,9) 0.345617 (1,5,10) 0.146716
(1,5,1): (1,4,1) -4.502160E-02 (1,5,2) 0.234039 (1,6,1) -5.953183E-02
(1,5,2): (1,4,2) -0.115089 (1,5,1) -0.234039 (1,5,3) 0.654400 (1,6,2) -0.135643
(1,5,3): (1,4,3) -0.356979 (1,5,2) -0.654400 (1,5,4) 1.48675 (1,6,3) -0.248551
(1,5,4): (1,4,4) -1.07805 (1,5,3) -1.48675 (1,5,5) 2.64139 (1,6,4) 0.224187
(1,5,5): (1,4,5) -2.74037 (1,5,4) -2.64139 (1,5,6) 0.363042 (1,6,5) 5.45625
(1,5,6): (1,4,6) -2.81875 (1,5,5) -0.363042 (1,5,7) -0.359495 (1,6,6) 4.03188
(1,5,7): (1,4,7) -2.74117 (1,5,6) 0.359495 (1,5,8) -2.63155 (1,6,7) 5.45550
(1,5,8): (1,4,8) -1.08090 (1,5,7) 2.63155 (1,5,9) -1.45617 (1,6,8) 0.220805
(1,5,9): (1,4,9) -0.366617 (1,5,8) 1.45617 (1,5,10) -0.565945 (1,6,9) -0.261346
(1,5,10): (1,4,10) -0.146716 (1,5,9) 0.565945 (1,6,10) -0.178787
(1,6,1): (1,5,1) 5.953183E-02 (1,6,2) 0.157854 (1,7,1) -0.197822
(1,6,2): (1,5,2) 0.135643 (1,6,1) -0.157854 (1,6,3) 0.541047 (1,7,2) -0.568270
(1,6,3): (1,5,3) 0.248551 (1,6,2) -0.541047 (1,6,4) 1.96675 (1,7,3) -1.88128
(1,6,4): (1,5,4) -0.224187 (1,6,3) -1.96675 (1,6,5) 7.98236 (1,7,4) -6.12142
(1,6,5): (1,5,5) -5.45625 (1,6,4) -7.98236 (1,6,6) -1.01145 (1,7,5) -20.3572
(1,6,6): (1,5,6) -4.03188 (1,6,5) 1.01145 (1,6,7) 1.01429 (1,7,6) -32.6797
(1,6,7): (1,5,7) -5.45550 (1,6,6) -1.01429 (1,6,8) -7.97491 (1,7,7) -20.3598
(1,6,8): (1,5,8) -0.220805 (1,6,7) 7.97491 (1,6,9) -1.94560 (1,7,8) -6.13147
(1,6,9): (1,5,9) 0.261346 (1,6,8) 1.94560 (1,6,10) -0.483143 (1,7,9) -1.92050
(1,6,10): (1,5,10) 0.178787 (1,6,9) 0.483143 (1,7,10) -0.714861
(1,7,1): (1,6,1) 0.197822 (1,7,2) -0.211532 (1,8,1) -0.130101
(1,7,2): (1,6,2) 0.568270 (1,7,1) 0.211532 (1,7,3) -0.760512 (1,8,2) -0.380909
(1,7,3): (1,6,3) 1.88128 (1,7,2) 0.760512 (1,7,4) -2.15533 (1,8,3) -1.31870
(1,7,4): (1,6,4) 6.12142 (1,7,3) 2.15533 (1,7,5) -5.12169 (1,8,4) -4.54859
(1,7,5): (1,6,5) 20.3572 (1,7,4) 5.12169 (1,7,6) -11.3197 (1,8,5) -15.6681
(1,7,6): (1,6,6) 32.6797 (1,7,5) 11.3197 (1,7,7) 11.3203 (1,8,6) -56.4873
(1,7,7): (1,6,7) 20.3598 (1,7,6) -11.3203 (1,7,8) 5.12134 (1,8,7) -15.6697
(1,7,8): (1,6,8) 6.13147 (1,7,7) -5.12134 (1,7,9) 2.14692 (1,8,8) -4.55516
(1,7,9): (1,6,9) 1.92050 (1,7,8) -2.14692 (1,7,10) 0.710588 (1,8,9) -1.34420
(1,7,10): (1,6,10) 0.714861 (1,7,9) -0.710588 (1,8,10) -0.476539
(1,8,1): (1,7,1) 0.130101 (1,8,2) -0.462546 (1,9,1) 0.106467
(1,8,2): (1,7,2) 0.380909 (1,8,1) 0.462546 (1,8,3) -1.70192 (1,9,2) 0.346770
(1,8,3): (1,7,3) 1.31870 (1,8,2) 1.70192 (1,8,4) -5.41369 (1,9,3) 1.27148
(1,8,4): (1,7,4) 4.54859 (1,8,3) 5.41369 (1,8,5) -16.3148 (1,9,4) 4.50138
(1,8,5): (1,7,5) 15.6681 (1,8,4) 16.3148 (1,8,6) -49.5594 (1,9,5) 15.6442
(1,8,6): (1,7,6) 56.4873 (1,8,5) 49.5594 (1,8,7) 49.5580 (1,9,6) 56.4698
(1,8,7): (1,7,7) 15.6697 (1,8,6) -49.5580 (1,8,8) 16.3086 (1,9,7) 15.6450
(1,8,8): (1,7,8) 4.55516 (1,8,7) -16.3086 (1,8,9) 5.38505 (1,9,8) 4.50553
(1,8,9): (1,7,9) 1.34420 (1,8,8) -5.38505 (1,8,10) 1.58031 (1,9,9) 1.29066
(1,8,10): (1,7,10) 0.476539 (1,8,9) -1.58031 (1,9,10) 0.428447
(1,9,1): (1,8,1) -0.106467 (1,9,2) -0.221964 (1,10,1) 0.183701
(1,9,2): (1,8,2) -0.346770 (1,9,1) 0.221964 (1,9,3) -0.773200 (1,10,2) 0.547581
(1,9,3): (1,8,3) -1.27148 (1,9,2) 0.773200 (1,9,4) -2.15375 (1,10,3) 1.85255
(1,9,4): (1,8,4) -4.50138 (1,9,3) 2.15375 (1,9,5) -5.09549 (1,10,4) 6.09711
(1,9,5): (1,8,5) -15.6442 (1,9,4) 5.09549 (1,9,6) -11.3074 (1,10,5) 20.3828
(1,9,6): (1,8,6) -56.4698 (1,9,5) 11.3074 (1,9,7) 11.3073 (1,10,6) 32.7180
(1,9,7): (1,8,7) -15.6450 (1,9,6) -11.3073 (1,9,8) 5.09344 (1,10,7) 20.3848
(1,9,8): (1,8,8) -4.50553 (1,9,7) -5.09344 (1,9,9) 2.14135 (1,10,8) 6.10565
(1,9,9): (1,8,9) -1.29066 (1,9,8) -2.14135 (1,9,10) 0.715573 (1,10,9) 1.88794
(1,9,10): (1,8,10) -0.428447 (1,9,9) -0.715573 (1,10,10) 0.685717
(1,10,1): (1,9,1) -0.183701 (1,10,2) 0.140938 (1,11,1) 5.797761E-02
(1,10,2): (1,9,2) -0.547581 (1,10,1) -0.140938 (1,10,3) 0.520704 (1,11,2) 0.131072
(1,10,3): (1,9,3) -1.85255 (1,10,2) -0.520704 (1,10,4) 1.97357 (1,11,3) 0.234376
(1,10,4): (1,9,4) -6.09711 (1,10,3) -1.97357 (1,10,5) 8.05663 (1,11,4) -0.263347
(1,10,5): (1,9,5) -20.3828 (1,10,4) -8.05663 (1,10,6) -0.992377 (1,11,5) -5.56002
(1,10,6): (1,9,6) -32.7180 (1,10,5) 0.992377 (1,10,7) 0.994023 (1,11,6) -4.15045
(1,10,7): (1,9,7) -20.3848 (1,10,6) -0.994023 (1,10,8) -8.05191 (1,11,7) -5.55928
(1,10,8): (1,9,8) -6.10565 (1,10,7) 8.05191 (1,10,9) -1.95876 (1,11,8) -0.260089
(1,10,9): (1,9,9) -1.88794 (1,10,8) 1.95876 (1,10,10) -0.475131 (1,11,9) 0.246809
(1,10,10): (1,9,10) -0.685717 (1,10,9) 0.475131 (1,11,10) 0.172976
(1,11,1): (1,10,1) -5.797761E-02 (1,11,2) 0.214093 (1,12,1) -3.655883E-02
(1,11,2): (1,10,2) -0.131072 (1,11,1) -0.214093 (1,11,3) 0.624400 (1,12,2) -0.104103
(1,11,3): (1,10,3) -0.234376 (1,11,2) -0.624400 (1,11,4) 1.46825 (1,12,3) -0.345815
(1,11,4): (1,10,4) 0.263347 (1,11,3) -1.46825 (1,11,5) 2.65105 (1,12,4) -1.07811
(1,11,5): (1,10,5) 5.56002 (1,11,4) -2.65105 (1,11,6) 0.366484 (1,12,5) -2.76698
(1,11,6): (1,10,6) 4.15045 (1,11,5) -0.366484 (1,11,7) -0.364146 (1,12,6) -2.85515
(1,11,7): (1,10,7) 5.55928 (1,11,6) 0.364146 (1,11,8) -2.64394 (1,12,7) -2.76748
(1,11,8): (1,10,8) 0.260089 (1,11,7) 2.64394 (1,11,9) -1.44423 (1,12,8) -1.08005
(1,11,9): (1,10,9) -0.246809 (1,11,8) 1.44423 (1,11,10) -0.549180 (1,12,9) -0.353143
(1,11,10): (1,10,10) -0.172976 (1,11,9) 0.549180 (1,12,10) -0.130892
(1,12,1): (1,11,1) 3.655883E-02 (1,12,2) 0.146475 (1,13,1) -5.301909E-02
(1,12,2): (1,11,2) 0.104103 (1,12,1) -0.146475 (1,12,3) 0.382029 (1,13,2) -0.126855
(1,12,3): (1,11,3) 0.345815 (1,12,2) -0.382029 (1,12,4) 0.733247 (1,13,3) -0.331883
(1,12,4): (1,11,4) 1.07811 (1,12,3) -0.733247 (1,12,5) 0.963935 (1,13,4) -0.761110
(1,12,5): (1,11,5) 2.76698 (1,12,4) -0.963935 (1,12,6) 0.280086 (1,13,5) -1.38128
(1,12,6): (1,11,6) 2.85515 (1,12,5) -0.280086 (1,12,7) -0.278237 (1,13,6) -1.53799
(1,12,7): (1,11,7) 2.76748 (1,12,6) 0.278237 (1,12,8) -0.958380 (1,13,7) -1.38207
(1,12,8): (1,11,8) 1.08005 (1,12,7) 0.958380 (1,12,9) -0.714807 (1,13,8) -0.764305
(1,12,9): (1,11,9) 0.353143 (1,12,8) 0.714807 (1,12,10) -0.326504 (1,13,9) -0.343338
(1,12,10): (1,11,10) 0.130892 (1,12,9) 0.326504 (1,13,10) -0.164496
(1,13,1): (1,12,1) 5.301909E-02 (1,13,2) 7.262513E-02 (1,14,1) -3.497188E-02
(1,13,2): (1,12,2) 0.126855 (1,13,1) -7.262513E-02 (1,13,3) 0.176900 (1,14,2) -7.773597E-02
(1,13,3): (1,12,3) 0.331883 (1,13,2) -0.176900 (1,13,4) 0.304135 (1,14,3) -0.185246
(1,13,4): (1,12,4) 0.761110 (1,13,3) -0.304135 (1,13,5) 0.346212 (1,14,4) -0.378065
(1,13,5): (1,12,5) 1.38128 (1,13,4) -0.346212 (1,13,6) 0.125206 (1,14,5) -0.607097
(1,13,6): (1,12,6) 1.53799 (1,13,5) -0.125206 (1,13,7) -0.124144 (1,14,6) -0.686486
(1,13,7): (1,12,7) 1.38207 (1,13,6) 0.124144 (1,13,8) -0.343085 (1,14,7) -0.607659
(1,13,8): (1,12,8) 0.764305 (1,13,7) 0.343085 (1,13,9) -0.294042 (1,14,8) -0.380307
(1,13,9): (1,12,9) 0.343338 (1,13,8) 0.294042 (1,13,10) -0.147691 (1,14,9) -0.193038
(1,13,10): (1,12,10) 0.164496 (1,13,9) 0.147691 (1,14,10) -0.102093
(1,14,1): (1,13,1) 3.497188E-02 (1,14,2) 2.986322E-02 (1,15,1) -1.499242E-02
(1,14,2): (1,13,2) 7.773597E-02 (1,14,1) -2.986322E-02 (1,14,3) 6.939882E-02 (1,15,2) -3.191149E-02
(1,14,3): (1,13,3) 0.185246 (1,14,2) -6.939882E-02 (1,14,4) 0.111456 (1,15,3) -7.229533E-02
(1,14,4): (1,13,4) 0.378065 (1,14,3) -0.111456 (1,14,5) 0.117763 (1,15,4) -0.139366
(1,14,5): (1,13,5) 0.607097 (1,14,4) -0.117763 (1,14,6) 4.624874E-02 (1,15,5) -0.212386
(1,14,6): (1,13,6) 0.686486 (1,14,5) -4.624874E-02 (1,14,7) -4.574619E-02 (1,15,6) -0.240466
(1,14,7): (1,13,7) 0.607659 (1,14,6) 4.574619E-02 (1,14,8) -0.116320 (1,15,7) -0.212640
(1,14,8): (1,13,8) 0.380307 (1,14,7) 0.116320 (1,14,9) -0.106933 (1,15,8) -0.140365
(1,14,9): (1,13,9) 0.193038 (1,14,8) 0.106933 (1,14,10) -5.678643E-02 (1,15,9) -7.569559E-02
(1,14,10): (1,13,10) 0.102093 (1,14,9) 5.678643E-02 (1,15,10) -4.221201E-02
(1,15,1): (1,14,1) 1.499242E-02 (1,15,2) 1.294450E-02
(1,15,2): (1,14,2) 3.191149E-02 (1,15,1) -1.294450E-02 (1,15,3) 2.901614E-02
(1,15,3): (1,14,3) 7.229533E-02 (1,15,2) -2.901614E-02 (1,15,4) 4.440466E-02
(1,15,4): (1,14,4) 0.139366 (1,15,3) -4.440466E-02 (1,15,5) 4.481129E-02
(1,15,5): (1,14,5) 0.212386 (1,15,4) -4.481129E-02 (1,15,6) 1.822321E-02
(1,15,6): (1,14,6) 0.240466 (1,15,5) -1.822321E-02 (1,15,7) -1.797401E-02
(1,15,7): (1,14,7) 0.212640 (1,15,6) 1.797401E-02 (1,15,8) -4.411422E-02
(1,15,8): (1,14,8) 0.140365 (1,15,7) 4.411422E-02 (1,15,9) -4.228452E-02
(1,15,9): (1,14,9) 7.569559E-02 (1,15,8) 4.228452E-02 (1,15,10) -2.330916E-02
(1,15,10): (1,14,10) 4.221201E-02 (1,15,9) 2.330916E-02

 WEL PACKAGE (WEL-1) FLOW RATES   PERIOD      2   STEP       45
 ----------------------------------------------------------------------------------------
   NUMBER   CELLID                    RATE       NAME                                    
 ----------------------------------------------------------------------------------------
     1      (1,8,6)              -212.35090      WEL                                     
 ----------------------------------------------------------------------------------------




 DRN PACKAGE (DRN-0) FLOW RATES   PERIOD      2   STEP       45
 ----------------------------------------------------------------------------------------
   NUMBER   CELLID                    RATE       NAME                                    
 ----------------------------------------------------------------------------------------
     1      (1,1,1)               0.0000000      SURF                                    
     2      (1,1,2)               0.0000000      SURF                                    
     3      (1,1,3)               0.0000000      SURF                                    
     4      (1,1,4)               0.0000000      SURF                                    
     5      (1,1,5)               0.0000000      SURF                                    
     6      (1,1,6)               0.0000000      SURF                                    
     7      (1,1,7)               0.0000000      SURF                                    
     8      (1,1,8)               0.0000000      SURF                                    
     9      (1,1,9)               0.0000000      SURF                                    
     10     (1,1,10)              0.0000000      SURF                                    
     11     (1,2,1)               0.0000000      SURF                                    
     12     (1,2,2)               0.0000000      SURF                                    
     13     (1,2,3)               0.0000000      SURF                                    
     14     (1,2,4)               0.0000000      SURF                                    
     15     (1,2,5)               0.0000000      SURF                                    
     16     (1,2,6)               0.0000000      SURF                                    
     17     (1,2,7)               0.0000000      SURF                                    
     18     (1,2,8)               0.0000000      SURF                                    
     19     (1,2,9)               0.0000000      SURF                                    
     20     (1,2,10)              0.0000000      SURF                                    
     21     (1,3,1)               0.0000000      SURF                                    
     22     (1,3,2)               0.0000000      SURF                                    
     23     (1,3,3)               0.0000000      SURF                                    
     24     (1,3,4)               0.0000000      SURF                                    
     25     (1,3,5)               0.0000000      SURF                                    
     26     (1,3,6)               0.0000000      SURF                                    
     27     (1,3,7)               0.0000000      SURF                                    
     28     (1,3,8)               0.0000000      SURF                                    
     29     (1,3,9)               0.0000000      SURF                                    
     30     (1,3,10)              0.0000000      SURF                                    
     31     (1,4,1)               0.0000000      SURF                                    
     32     (1,4,2)               0.0000000      SURF                                    
     33     (1,4,3)               0.0000000      SURF                                    
     34     (1,4,4)               0.0000000      SURF                                    
     35     (1,4,5)               0.0000000      SURF                                    
     36     (1,4,6)               0.0000000      SURF                                    
     37     (1,4,7)               0.0000000      SURF                                    
     38     (1,4,8)               0.0000000      SURF                                    
     39     (1,4,9)               0.0000000      SURF                                    
     40     (1,4,10)              0.0000000      SURF                                    
     41     (1,5,1)               0.0000000      SURF                                    
     42     (1,5,2)               0.0000000      SURF                                    
     43     (1,5,3)               0.0000000      SURF                                    
     44     (1,5,4)               0.0000000      SURF                                    
     45     (1,5,5)               0.0000000      SURF                                    
     46     (1,5,6)               0.0000000      SURF                                    
     47     (1,5,7)               0.0000000      SURF                                    
     48     (1,5,8)               0.0000000      SURF                                    
     49     (1,5,9)               0.0000000      SURF                                    
     50     (1,5,10)              0.0000000      SURF                                    
     51     (1,6,1)               0.0000000      SURF                                    
     52     (1,6,2)               0.0000000      SURF                                    
     53     (1,6,3)               0.0000000      SURF                                    
     54     (1,6,4)               0.0000000      SURF                                    
     55     (1,6,5)               0.0000000      SURF                                    
     56     (1,6,6)               0.0000000      SURF                                    
     57     (1,6,7)              -9.54605639E-09 SURF                                    
     58     (1,6,8)               0.0000000      SURF                                    
     59     (1,6,9)               0.0000000      SURF                                    
     60     (1,6,10)              0.0000000      SURF                                    
     61     (1,7,1)               0.0000000      SURF                                    
     62     (1,7,2)               0.0000000      SURF                                    
     63     (1,7,3)               0.0000000      SURF                                    
     64     (1,7,4)               0.0000000      SURF                                    
     65     (1,7,5)               0.0000000      SURF                                    
     66     (1,7,6)               0.0000000      SURF                                    
     67     (1,7,7)               0.0000000      SURF                                    
     68     (1,7,8)               0.0000000      SURF                                    
     69     (1,7,9)               0.0000000      SURF                                    
     70     (1,7,10)              0.0000000      SURF                                    
     71     (1,8,1)               0.0000000      SURF                                    
     72     (1,8,2)               0.0000000      SURF                                    
     73     (1,8,3)               0.0000000      SURF                                    
     74     (1,8,4)               0.0000000      SURF                                    
     75     (1,8,5)               0.0000000      SURF                                    
     76     (1,8,6)               0.0000000      SURF                                    
     77     (1,8,7)               0.0000000      SURF                                    
     78     (1,8,8)               0.0000000      SURF                                    
     79     (1,8,9)               0.0000000      SURF                                    
     80     (1,8,10)              0.0000000      SURF                                    
     81     (1,9,1)               0.0000000      SURF                                    
     82     (1,9,2)               0.0000000      SURF                                    
     83     (1,9,3)               0.0000000      SURF                                    
     84     (1,9,4)               0.0000000      SURF                                    
     85     (1,9,5)               0.0000000      SURF                                    
     86     (1,9,6)               0.0000000      SURF                                    
     87     (1,9,7)               0.0000000      SURF                                    
     88     (1,9,8)               0.0000000      SURF                                    
     89     (1,9,9)               0.0000000      SURF                                    
     90     (1,9,10)              0.0000000      SURF                                    
     91     (1,10,1)              0.0000000      SURF                                    
     92     (1,10,2)              0.0000000      SURF                                    
     93     (1,10,3)              0.0000000      SURF                                    
     94     (1,10,4)              0.0000000      SURF                                    
     95     (1,10,5)              0.0000000      SURF                                    
     96     (1,10,6)              0.0000000      SURF                                    
     97     (1,10,7)             -3.42377461E-07 SURF                                    
     98     (1,10,8)              0.0000000      SURF                                    
     99     (1,10,9)              0.0000000      SURF                                    
    100     (1,10,10)             0.0000000      SURF                                    
    101     (1,11,1)              0.0000000      SURF                                    
    102     (1,11,2)              0.0000000      SURF                                    
    103     (1,11,3)              0.0000000      SURF                                    
    104     (1,11,4)              0.0000000      SURF                                    
    105     (1,11,5)              0.0000000      SURF                                    
    106     (1,11,6)              0.0000000      SURF                                    
    107     (1,11,7)              0.0000000      SURF                                    
    108     (1,11,8)              0.0000000      SURF                                    
    109     (1,11,9)              0.0000000      SURF                                    
    110     (1,11,10)             0.0000000      SURF                                    
    111     (1,12,1)              0.0000000      SURF                                    
    112     (1,12,2)              0.0000000      SURF                                    
    113     (1,12,3)              0.0000000      SURF                                    
    114     (1,12,4)              0.0000000      SURF                                    
    115     (1,12,5)              0.0000000      SURF                                    
    116     (1,12,6)              0.0000000      SURF                                    
    117     (1,12,7)              0.0000000      SURF                                    
    118     (1,12,8)              0.0000000      SURF                                    
    119     (1,12,9)              0.0000000      SURF                                    
    120     (1,12,10)             0.0000000      SURF                                    
    121     (1,13,1)              0.0000000      SURF                                    
    122     (1,13,2)              0.0000000      SURF                                    
    123     (1,13,3)              0.0000000      SURF                                    
    124     (1,13,4)              0.0000000      SURF                                    
    125     (1,13,5)              0.0000000      SURF                                    
    126     (1,13,6)              0.0000000      SURF                                    
    127     (1,13,7)              0.0000000      SURF                                    
    128     (1,13,8)              0.0000000      SURF                                    
    129     (1,13,9)              0.0000000      SURF                                    
    130     (1,13,10)             0.0000000      SURF                                    
    131     (1,14,1)              0.0000000      SURF                                    
    132     (1,14,2)              0.0000000      SURF                                    
    133     (1,14,3)              0.0000000      SURF                                    
    134     (1,14,4)              0.0000000      SURF                                    
    135     (1,14,5)              0.0000000      SURF                                    
    136     (1,14,6)              0.0000000      SURF                                    
    137     (1,14,7)              0.0000000      SURF                                    
    138     (1,14,8)              0.0000000      SURF                                    
    139     (1,14,9)              0.0000000      SURF                                    
    140     (1,14,10)             0.0000000      SURF                                    
    141     (1,15,1)              0.0000000      SURF                                    
    142     (1,15,2)              0.0000000      SURF                                    
    143     (1,15,3)              0.0000000      SURF                                    
    144     (1,15,4)              0.0000000      SURF                                    
    145     (1,15,5)              0.0000000      SURF                                    
    146     (1,15,6)              0.0000000      SURF                                    
    147     (1,15,7)              0.0000000      SURF                                    
    148     (1,15,8)              0.0000000      SURF                                    
    149     (1,15,9)              0.0000000      SURF                                    
    150     (1,15,10)             0.0000000      SURF                                    
 ----------------------------------------------------------------------------------------




 API PACKAGE (MAR) FLOW RATES   PERIOD      2   STEP       45
 -----------------------------------------------
   NUMBER   CELLID                    RATE      
 -----------------------------------------------
     1      (1,6,5)               34.804462     
     2      (1,6,6)               34.804462     
     3      (1,6,7)               34.804462     
     4      (1,10,5)              34.990000     
     5      (1,10,6)              34.990000     
     6      (1,10,7)              34.990000     
 -----------------------------------------------



1
  HEAD IN LAYER   1 AT END OF TIME STEP  45 IN STRESS PERIOD    2
  ---------------------------------------------------------------------------

            1           2           3           4           5           6           7           8           9          10
 ........................................................................................................................
   1   1.8871E-03  3.5511E-03  7.1631E-03  1.2504E-02  1.7760E-02  1.9896E-02  1.7801E-02  1.2651E-02  7.6165E-03  4.7804E-03
   2   3.8344E-03  7.4642E-03  1.5613E-02  2.8231E-02  4.1211E-02  4.6315E-02  4.1289E-02  2.8520E-02  1.6521E-02  9.9961E-03
   3   8.2279E-03  1.6643E-02  3.6391E-02  6.9043E-02  0.1052      0.1183      0.1053      6.9638E-02  3.8305E-02  2.2146E-02
   4   1.4676E-02  3.1014E-02  7.1901E-02  0.1471      0.2428      0.2707      0.2431      0.1481      7.5245E-02  4.0941E-02
   5   1.9170E-02  4.2474E-02  0.1072      0.2522      0.5037      0.5382      0.5040      0.2535      0.1115      5.5532E-02
   6   1.3228E-02  2.8968E-02  8.2629E-02  0.2741      0.9997      0.9078       1.000      0.2750      8.5656E-02  3.7752E-02
   7  -6.5283E-03 -2.7695E-02 -0.1040     -0.3218     -0.8510      -2.088     -0.8509     -0.3217     -0.1048     -3.3466E-02
   8  -1.9547E-02 -6.5892E-02 -0.2372     -0.7917      -2.563      -9.228      -2.564     -0.7924     -0.2406     -8.1279E-02
   9  -8.8907E-03 -3.1107E-02 -0.1087     -0.3264     -0.8532      -2.089     -0.8532     -0.3266     -0.1101     -3.8270E-02
  10   9.4620E-03  2.3523E-02  7.5204E-02  0.2674      0.9999      0.9096       1.000      0.2680      7.7245E-02  3.0096E-02
  11   1.5251E-02  3.6582E-02  9.8414E-02  0.2418      0.4944      0.5292      0.4946      0.2427      0.1017      4.7312E-02
  12   1.1601E-02  2.6210E-02  6.4169E-02  0.1365      0.2307      0.2580      0.2309      0.1372      6.6718E-02  3.4284E-02
  13   6.3049E-03  1.3558E-02  3.1193E-02  6.1420E-02  9.5713E-02  0.1081      9.5818E-02  6.1836E-02  3.2612E-02  1.7891E-02
  14   2.8099E-03  5.7945E-03  1.2726E-02  2.3845E-02  3.5579E-02  4.0186E-02  3.5629E-02  2.4039E-02  1.3371E-02  7.6999E-03
  15   1.3111E-03  2.6052E-03  5.5052E-03  9.9412E-03  1.4416E-02  1.6235E-02  1.4441E-02  1.0036E-02  5.8115E-03  3.4820E-03

 HEAD WILL BE SAVED ON UNIT 1100 AT END OF TIME STEP   45, STRESS PERIOD    2


  VOLUME BUDGET FOR ENTIRE MODEL AT END OF TIME STEP   45, STRESS PERIOD   2
  ---------------------------------------------------------------------------------------------------

     CUMULATIVE VOLUME      L**3       RATES FOR THIS TIME STEP      L**3/T          PACKAGE NAME    
     ------------------                 ------------------------                     ----------------

           IN:                                      IN:
           ---                                      ---
              STO-SS =          20.9662                STO-SS =       1.4953E-02     STORAGE                          
              STO-SY =       53063.2476                STO-SY =          32.6687     STORAGE                          
                 WEL =           0.0000                   WEL =           0.0000     WEL-1                            
                 DRN =           0.0000                   DRN =           0.0000     DRN-0                            
                 API =       90839.9475                   API =         209.3834     MAR                              
                 CHD =       2.0279E-08                   CHD =           0.0000     CHD_0                            

            TOTAL IN =      143924.1613              TOTAL IN =         242.0670

          OUT:                                     OUT:
          ----                                     ----
              STO-SS =          17.2168                STO-SS =       1.5066E-02     STORAGE                          
              STO-SY =       33545.3185                STO-SY =          29.7011     STORAGE                          
                 WEL =      110361.6259                   WEL =         212.3509     WEL-1                            
                 DRN =       1.4774E-04                   DRN =       3.5192E-07     DRN-0                            
                 API =           0.0000                   API =           0.0000     MAR                              
                 CHD =       2.0705E-08                   CHD =           0.0000     CHD_0                            

           TOTAL OUT =      143924.1613             TOTAL OUT =         242.0670

            IN - OUT =      -1.1517E-06              IN - OUT =      -3.0345E-09

 PERCENT DISCREPANCY =          -0.00     PERCENT DISCREPANCY =          -0.00




         TIME SUMMARY AT END OF TIME STEP   45 IN STRESS PERIOD    2
                    SECONDS     MINUTES      HOURS       DAYS        YEARS
                    -----------------------------------------------------------
   TIME STEP LENGTH 8.64000E+05  14400.      240.00      10.000     2.73785E-02
 STRESS PERIOD TIME 3.88800E+07 6.48000E+05  10800.      450.00      1.2320    
         TOTAL TIME 3.89664E+07 6.49440E+05  10824.      451.00      1.2348    


end timestep


start timestep kper="2" kstp="46" mode="normal"

 UBDSV1 SAVING           STO-SS ON UNIT   1099 AT TIME STEP     46, STRESS PERIOD      2
 UBDSV1 SAVING           STO-SY ON UNIT   1099 AT TIME STEP     46, STRESS PERIOD      2
 UBDSV1 SAVING     FLOW-JA-FACE ON UNIT   1099 AT TIME STEP     46, STRESS PERIOD      2
 UBDSV06 SAVING       DATA-SPDIS IN MODEL GWF              PACKAGE NPF             CONNECTED TO MODEL GWF              PACKAGE NPF              ON UNIT   1099 AT TIME STEP     46, STRESS PERIOD      2
 UBDSV06 SAVING              WEL IN MODEL GWF              PACKAGE GWF             CONNECTED TO MODEL GWF              PACKAGE WEL-1            ON UNIT   1099 AT TIME STEP     46, STRESS PERIOD      2
 UBDSV06 SAVING              DRN IN MODEL GWF              PACKAGE GWF             CONNECTED TO MODEL GWF              PACKAGE DRN-0            ON UNIT   1099 AT TIME STEP     46, STRESS PERIOD      2
 UBDSV06 SAVING              API IN MODEL GWF              PACKAGE GWF             CONNECTED TO MODEL GWF              PACKAGE MAR              ON UNIT   1099 AT TIME STEP     46, STRESS PERIOD      2
 UBDSV06 SAVING              CHD IN MODEL GWF              PACKAGE GWF             CONNECTED TO MODEL GWF              PACKAGE CHD_0            ON UNIT   1099 AT TIME STEP     46, STRESS PERIOD      2

    CALCULATED INTERCELL FLOW FOR PERIOD 2 STEP 46
(1,1,1): (1,1,2) 1.780311E-02 (1,2,1) 2.073589E-02
(1,1,2): (1,1,1) -1.780311E-02 (1,1,3) 3.835663E-02 (1,2,2) 4.113406E-02
(1,1,3): (1,1,2) -3.835663E-02 (1,1,4) 5.625693E-02 (1,2,3) 8.794234E-02
(1,1,4): (1,1,3) -5.625693E-02 (1,1,5) 5.504487E-02 (1,2,4) 0.162636
(1,1,5): (1,1,4) -5.504487E-02 (1,1,6) 2.235197E-02 (1,2,5) 0.241734
(1,1,6): (1,1,5) -2.235197E-02 (1,1,7) -2.188379E-02 (1,2,6) 0.272184
(1,1,7): (1,1,6) 2.188379E-02 (1,1,8) -5.384573E-02 (1,2,7) 0.242154
(1,1,8): (1,1,7) 5.384573E-02 (1,1,9) -5.288691E-02 (1,2,8) 0.164183
(1,1,9): (1,1,8) 5.288691E-02 (1,1,10) -2.993042E-02 (1,2,9) 9.282968E-02
(1,1,10): (1,1,9) 2.993042E-02 (1,2,10) 5.493540E-02
(1,2,1): (1,1,1) -2.073589E-02 (1,2,2) 3.820069E-02 (1,3,1) 4.617237E-02
(1,2,2): (1,1,2) -4.113406E-02 (1,2,1) -3.820069E-02 (1,2,3) 8.516361E-02 (1,3,2) 9.528575E-02
(1,2,3): (1,1,3) -8.794234E-02 (1,2,2) -8.516361E-02 (1,2,4) 0.130927 (1,3,3) 0.213931
(1,2,4): (1,1,4) -0.162636 (1,2,3) -0.130927 (1,2,5) 0.134058 (1,3,4) 0.418732
(1,2,5): (1,1,5) -0.241734 (1,2,4) -0.134058 (1,2,6) 5.273643E-02 (1,3,5) 0.656026
(1,2,6): (1,1,6) -0.272184 (1,2,5) -5.273643E-02 (1,2,7) -5.184848E-02 (1,3,6) 0.738467
(1,2,7): (1,1,7) -0.242154 (1,2,6) 5.184848E-02 (1,2,8) -0.131732 (1,3,7) 0.656925
(1,2,8): (1,1,8) -0.164183 (1,2,7) 0.131732 (1,2,9) -0.124212 (1,3,8) 0.422066
(1,2,9): (1,1,9) -9.282968E-02 (1,2,8) 0.124212 (1,2,10) -6.781528E-02 (1,3,9) 0.224655
(1,2,10): (1,1,10) -5.493540E-02 (1,2,9) 6.781528E-02 (1,3,10) 0.126418
(1,3,1): (1,2,1) -4.617237E-02 (1,3,2) 8.731017E-02 (1,4,1) 6.645812E-02
(1,3,2): (1,2,2) -9.528575E-02 (1,3,1) -8.731017E-02 (1,3,3) 0.203797 (1,4,2) 0.146615
(1,3,3): (1,2,3) -0.213931 (1,3,2) -0.203797 (1,3,4) 0.335561 (1,4,3) 0.360891
(1,3,4): (1,2,4) -0.418732 (1,3,3) -0.335561 (1,3,5) 0.370694 (1,4,4) 0.795951
(1,3,5): (1,2,5) -0.656026 (1,3,4) -0.370694 (1,3,6) 0.134696 (1,4,5) 1.41514
(1,3,6): (1,2,6) -0.738467 (1,3,5) -0.134696 (1,3,7) -0.132913 (1,4,6) 1.57100
(1,3,7): (1,2,7) -0.656925 (1,3,6) 0.132913 (1,3,8) -0.365927 (1,4,7) 1.41637
(1,3,8): (1,2,8) -0.422066 (1,3,7) 0.365927 (1,3,9) -0.321428 (1,4,8) 0.800526
(1,3,9): (1,2,9) -0.224655 (1,3,8) 0.321428 (1,3,10) -0.165995 (1,4,9) 0.375939
(1,3,10): (1,2,10) -0.126418 (1,3,9) 0.165995 (1,4,10) 0.192202
(1,4,1): (1,3,1) -6.645812E-02 (1,4,2) 0.167483 (1,5,1) 4.409453E-02
(1,4,2): (1,3,2) -0.146615 (1,4,1) -0.167483 (1,4,3) 0.418194 (1,5,2) 0.112371
(1,4,3): (1,3,3) -0.360891 (1,4,2) -0.418194 (1,4,4) 0.770514 (1,5,3) 0.350499
(1,4,4): (1,3,4) -0.795951 (1,4,3) -0.770514 (1,4,5) 0.987390 (1,5,4) 1.06770
(1,4,5): (1,3,5) -1.41514 (1,4,4) -0.987390 (1,4,6) 0.288714 (1,5,5) 2.73056
(1,4,6): (1,3,6) -1.57100 (1,4,5) -0.288714 (1,4,7) -0.285709 (1,5,6) 2.80944
(1,4,7): (1,3,7) -1.41637 (1,4,6) 0.285709 (1,4,8) -0.979240 (1,5,7) 2.73138
(1,4,8): (1,3,8) -0.800526 (1,4,7) 0.979240 (1,4,9) -0.745791 (1,5,8) 1.07054
(1,4,9): (1,3,9) -0.375939 (1,4,8) 0.745791 (1,4,10) -0.349685 (1,5,9) 0.359974
(1,4,10): (1,3,10) -0.192202 (1,4,9) 0.349685 (1,5,10) 0.143184
(1,5,1): (1,4,1) -4.409453E-02 (1,5,2) 0.235843 (1,6,1) -6.519921E-02
(1,5,2): (1,4,2) -0.112371 (1,5,1) -0.235843 (1,5,3) 0.657035 (1,6,2) -0.146705
(1,5,3): (1,4,3) -0.350499 (1,5,2) -0.657035 (1,5,4) 1.49058 (1,6,3) -0.270133
(1,5,4): (1,4,4) -1.06770 (1,5,3) -1.49058 (1,5,5) 2.64905 (1,6,4) 0.192867
(1,5,5): (1,4,5) -2.73056 (1,5,4) -2.64905 (1,5,6) 0.366054 (1,6,5) 5.43304
(1,5,6): (1,4,6) -2.80944 (1,5,5) -0.366054 (1,5,7) -0.362250 (1,6,6) 4.01285
(1,5,7): (1,4,7) -2.73138 (1,5,6) 0.362250 (1,5,8) -2.63870 (1,6,7) 5.43217
(1,5,8): (1,4,8) -1.07054 (1,5,7) 2.63870 (1,5,9) -1.45896 (1,6,8) 0.189077
(1,5,9): (1,4,9) -0.359974 (1,5,8) 1.45896 (1,5,10) -0.566912 (1,6,9) -0.284264
(1,5,10): (1,4,10) -0.143184 (1,5,9) 0.566912 (1,6,10) -0.193677
(1,6,1): (1,5,1) 6.519921E-02 (1,6,2) 0.154265 (1,7,1) -0.206021
(1,6,2): (1,5,2) 0.146705 (1,6,1) -0.154265 (1,6,3) 0.533142 (1,7,2) -0.583644
(1,6,3): (1,5,3) 0.270133 (1,6,2) -0.533142 (1,6,4) 1.96069 (1,7,3) -1.91150
(1,6,4): (1,5,4) -0.192867 (1,6,3) -1.96069 (1,6,5) 8.00011 (1,7,4) -6.17231
(1,6,5): (1,5,5) -5.43304 (1,6,4) -8.00011 (1,6,6) -1.00458 (1,7,5) -20.4347
(1,6,6): (1,5,6) -4.01285 (1,6,5) 1.00458 (1,6,7) 1.00758 (1,7,6) -32.7469
(1,6,7): (1,5,7) -5.43217 (1,6,6) -1.00758 (1,6,8) -7.99245 (1,7,7) -20.4375
(1,6,8): (1,5,8) -0.189077 (1,6,7) 7.99245 (1,6,9) -1.93944 (1,7,8) -6.18300
(1,6,9): (1,5,9) 0.284264 (1,6,8) 1.93944 (1,6,10) -0.476078 (1,7,9) -1.95267
(1,6,10): (1,5,10) 0.193677 (1,6,9) 0.476078 (1,7,10) -0.735585
(1,7,1): (1,6,1) 0.206021 (1,7,2) -0.222242 (1,8,1) -0.134156
(1,7,2): (1,6,2) 0.583644 (1,7,1) 0.222242 (1,7,3) -0.782914 (1,8,2) -0.388124
(1,7,3): (1,6,3) 1.91150 (1,7,2) 0.782914 (1,7,4) -2.18007 (1,8,3) -1.33187
(1,7,4): (1,6,4) 6.17231 (1,7,3) 2.18007 (1,7,5) -5.12190 (1,8,4) -4.56642
(1,7,5): (1,6,5) 20.4347 (1,7,4) 5.12190 (1,7,6) -11.2956 (1,8,5) -15.6743
(1,7,6): (1,6,6) 32.7469 (1,7,5) 11.2956 (1,7,7) 11.2963 (1,8,6) -56.4164
(1,7,7): (1,6,7) 20.4375 (1,7,6) -11.2963 (1,7,8) 5.12129 (1,8,7) -15.6760
(1,7,8): (1,6,8) 6.18300 (1,7,7) -5.12129 (1,7,9) 2.17042 (1,8,8) -4.57332
(1,7,9): (1,6,9) 1.95267 (1,7,8) -2.17042 (1,7,10) 0.728737 (1,8,9) -1.35835
(1,7,10): (1,6,10) 0.735585 (1,7,9) -0.728737 (1,8,10) -0.486298
(1,8,1): (1,7,1) 0.134156 (1,8,2) -0.476435 (1,9,1) 0.110499
(1,8,2): (1,7,2) 0.388124 (1,8,1) 0.476435 (1,8,3) -1.73045 (1,9,2) 0.354546
(1,8,3): (1,7,3) 1.33187 (1,8,2) 1.73045 (1,8,4) -5.44356 (1,9,3) 1.28623
(1,8,4): (1,7,4) 4.56642 (1,8,3) 5.44356 (1,8,5) -16.3011 (1,9,4) 4.52148
(1,8,5): (1,7,5) 15.6743 (1,8,4) 16.3011 (1,8,6) -49.4412 (1,9,5) 15.6522
(1,8,6): (1,7,6) 56.4164 (1,8,5) 49.4412 (1,8,7) 49.4396 (1,9,6) 56.4010
(1,8,7): (1,7,7) 15.6760 (1,8,6) -49.4396 (1,8,8) 16.2944 (1,9,7) 15.6531
(1,8,8): (1,7,8) 4.57332 (1,8,7) -16.2944 (1,8,9) 5.41294 (1,9,8) 4.52589
(1,8,9): (1,7,9) 1.35835 (1,8,8) -5.41294 (1,8,10) 1.60294 (1,9,9) 1.30634
(1,8,10): (1,7,10) 0.486298 (1,8,9) -1.60294 (1,9,10) 0.438919
(1,9,1): (1,8,1) -0.110499 (1,9,2) -0.232090 (1,10,1) 0.191738
(1,9,2): (1,8,2) -0.354546 (1,9,1) 0.232090 (1,9,3) -0.794593 (1,10,2) 0.563036
(1,9,3): (1,8,3) -1.28623 (1,9,2) 0.794593 (1,9,4) -2.17786 (1,10,3) 1.88324
(1,9,4): (1,8,4) -4.52148 (1,9,3) 2.17786 (1,9,5) -5.09641 (1,10,4) 6.14839
(1,9,5): (1,8,5) -15.6522 (1,9,4) 5.09641 (1,9,6) -11.2838 (1,10,5) 20.4586
(1,9,6): (1,8,6) -56.4010 (1,9,5) 11.2838 (1,9,7) 11.2836 (1,10,6) 32.7830
(1,9,7): (1,8,7) -15.6531 (1,9,6) -11.2836 (1,9,8) 5.09406 (1,10,7) 20.4608
(1,9,8): (1,8,8) -4.52589 (1,9,7) -5.09406 (1,9,9) 2.16423 (1,10,8) 6.15753
(1,9,9): (1,8,9) -1.30634 (1,9,8) -2.16423 (1,9,10) 0.732917 (1,10,9) 1.92052
(1,9,10): (1,8,10) -0.438919 (1,9,9) -0.732917 (1,10,10) 0.706519
(1,10,1): (1,9,1) -0.191738 (1,10,2) 0.138178 (1,11,1) 6.336785E-02
(1,10,2): (1,9,2) -0.563036 (1,10,1) -0.138178 (1,10,3) 0.514194 (1,11,2) 0.141787
(1,10,3): (1,9,3) -1.88324 (1,10,2) -0.514194 (1,10,4) 1.96805 (1,11,3) 0.255732
(1,10,4): (1,9,4) -6.14839 (1,10,3) -1.96805 (1,10,5) 8.07170 (1,11,4) -0.231306
(1,10,5): (1,9,5) -20.4586 (1,10,4) -8.07170 (1,10,6) -0.986136 (1,11,5) -5.53318
(1,10,6): (1,9,6) -32.7830 (1,10,5) 0.986136 (1,10,7) 0.987880 (1,11,6) -4.12707
(1,10,7): (1,9,7) -20.4608 (1,10,6) -0.987880 (1,10,8) -8.06684 (1,11,7) -5.53234
(1,10,8): (1,9,8) -6.15753 (1,10,7) 8.06684 (1,10,9) -1.95315 (1,11,8) -0.227670
(1,10,9): (1,9,9) -1.92052 (1,10,8) 1.95315 (1,10,10) -0.469191 (1,11,9) 0.269421
(1,10,10): (1,9,10) -0.706519 (1,10,9) 0.469191 (1,11,10) 0.187356
(1,11,1): (1,10,1) -6.336785E-02 (1,11,2) 0.216656 (1,12,1) -3.585984E-02
(1,11,2): (1,10,2) -0.141787 (1,11,1) -0.216656 (1,11,3) 0.628552 (1,12,2) -0.101950
(1,11,3): (1,10,3) -0.255732 (1,11,2) -0.628552 (1,11,4) 1.47356 (1,12,3) -0.340396
(1,11,4): (1,10,4) 0.231306 (1,11,3) -1.47356 (1,11,5) 2.65894 (1,12,4) -1.06889
(1,11,5): (1,10,5) 5.53318 (1,11,4) -2.65894 (1,11,6) 0.369637 (1,12,5) -2.75747
(1,11,6): (1,10,6) 4.12707 (1,11,5) -0.369637 (1,11,7) -0.367105 (1,12,6) -2.84582
(1,11,7): (1,10,7) 5.53234 (1,11,6) 0.367105 (1,11,8) -2.65140 (1,12,7) -2.75797
(1,11,8): (1,10,8) 0.227670 (1,11,7) 2.65140 (1,11,9) -1.44856 (1,12,8) -1.07083
(1,11,9): (1,10,9) -0.269421 (1,11,8) 1.44856 (1,11,10) -0.551481 (1,12,9) -0.347605
(1,11,10): (1,10,10) -0.187356 (1,11,9) 0.551481 (1,12,10) -0.128131
(1,12,1): (1,11,1) 3.585984E-02 (1,12,2) 0.150490 (1,13,1) -5.491451E-02
(1,12,2): (1,11,2) 0.101950 (1,12,1) -0.150490 (1,12,3) 0.389435 (1,13,2) -0.129653
(1,12,3): (1,11,3) 0.340396 (1,12,2) -0.389435 (1,12,4) 0.742278 (1,13,3) -0.336131
(1,12,4): (1,11,4) 1.06889 (1,12,3) -0.742278 (1,12,5) 0.971849 (1,13,4) -0.766909
(1,12,5): (1,11,5) 2.75747 (1,12,4) -0.971849 (1,12,6) 0.283051 (1,13,5) -1.38863
(1,12,6): (1,11,6) 2.84582 (1,12,5) -0.283051 (1,12,7) -0.281016 (1,13,6) -1.54586
(1,12,7): (1,11,7) 2.75797 (1,12,6) 0.281016 (1,12,8) -0.965860 (1,13,7) -1.38948
(1,12,8): (1,11,8) 1.07083 (1,12,7) 0.965860 (1,12,9) -0.722749 (1,13,8) -0.770297
(1,12,9): (1,11,9) 0.347605 (1,12,8) 0.722749 (1,12,10) -0.331569 (1,13,9) -0.348092
(1,12,10): (1,11,10) 0.128131 (1,12,9) 0.331569 (1,13,10) -0.168415
(1,13,1): (1,12,1) 5.491451E-02 (1,13,2) 7.573573E-02 (1,14,1) -3.702640E-02
(1,13,2): (1,12,2) 0.129653 (1,13,1) -7.573573E-02 (1,13,3) 0.182849 (1,14,2) -8.110118E-02
(1,13,3): (1,12,3) 0.336131 (1,13,2) -0.182849 (1,13,4) 0.311602 (1,14,3) -0.191056
(1,13,4): (1,12,4) 0.766909 (1,13,3) -0.311602 (1,13,5) 0.352578 (1,14,4) -0.386847
(1,13,5): (1,12,5) 1.38863 (1,13,4) -0.352578 (1,13,6) 0.127654 (1,14,5) -0.618363
(1,13,6): (1,12,6) 1.54586 (1,13,5) -0.127654 (1,13,7) -0.126467 (1,14,6) -0.698674
(1,13,7): (1,12,7) 1.38948 (1,13,6) 0.126467 (1,13,8) -0.349152 (1,14,7) -0.618982
(1,13,8): (1,12,8) 0.770297 (1,13,7) 0.349152 (1,13,9) -0.300739 (1,14,8) -0.389278
(1,13,9): (1,12,9) 0.348092 (1,13,8) 0.300739 (1,13,10) -0.151922 (1,14,9) -0.199376
(1,13,10): (1,12,10) 0.168415 (1,13,9) 0.151922 (1,14,10) -0.106728
(1,14,1): (1,13,1) 3.702640E-02 (1,14,2) 3.166330E-02 (1,15,1) -1.611630E-02
(1,14,2): (1,13,2) 8.110118E-02 (1,14,1) -3.166330E-02 (1,14,3) 7.290324E-02 (1,15,2) -3.379683E-02
(1,14,3): (1,13,3) 0.191056 (1,14,2) -7.290324E-02 (1,14,4) 0.115956 (1,15,3) -7.564469E-02
(1,14,4): (1,13,4) 0.386847 (1,14,3) -0.115956 (1,14,5) 0.121662 (1,15,4) -0.144561
(1,14,5): (1,13,5) 0.618363 (1,14,4) -0.121662 (1,14,6) 4.778741E-02 (1,15,5) -0.219151
(1,14,6): (1,13,6) 0.698674 (1,14,5) -4.778741E-02 (1,14,7) -4.721586E-02 (1,15,6) -0.247837
(1,14,7): (1,13,7) 0.618982 (1,14,6) 4.721586E-02 (1,14,8) -0.120053 (1,15,7) -0.219434
(1,14,8): (1,13,8) 0.389278 (1,14,7) 0.120053 (1,14,9) -0.111001 (1,15,8) -0.145661
(1,14,9): (1,13,9) 0.199376 (1,14,8) 0.111001 (1,14,10) -5.931769E-02 (1,15,9) -7.933031E-02
(1,14,10): (1,13,10) 0.106728 (1,14,9) 5.931769E-02 (1,15,10) -4.479825E-02
(1,15,1): (1,14,1) 1.611630E-02 (1,15,2) 1.398314E-02
(1,15,2): (1,14,2) 3.379683E-02 (1,15,1) -1.398314E-02 (1,15,3) 3.105652E-02
(1,15,3): (1,14,3) 7.564469E-02 (1,15,2) -3.105652E-02 (1,15,4) 4.705927E-02
(1,15,4): (1,14,4) 0.144561 (1,15,3) -4.705927E-02 (1,15,5) 4.714397E-02
(1,15,5): (1,14,5) 0.219151 (1,15,4) -4.714397E-02 (1,15,6) 1.915841E-02
(1,15,6): (1,14,6) 0.247837 (1,15,5) -1.915841E-02 (1,15,7) -1.886982E-02
(1,15,7): (1,14,7) 0.219434 (1,15,6) 1.886982E-02 (1,15,8) -4.635235E-02
(1,15,8): (1,14,8) 0.145661 (1,15,7) 4.635235E-02 (1,15,9) -4.469346E-02
(1,15,9): (1,14,9) 7.933031E-02 (1,15,8) 4.469346E-02 (1,15,10) -2.479253E-02
(1,15,10): (1,14,10) 4.479825E-02 (1,15,9) 2.479253E-02

 WEL PACKAGE (WEL-1) FLOW RATES   PERIOD      2   STEP       46
 ----------------------------------------------------------------------------------------
   NUMBER   CELLID                    RATE       NAME                                    
 ----------------------------------------------------------------------------------------
     1      (1,8,6)              -211.95496      WEL                                     
 ----------------------------------------------------------------------------------------




 DRN PACKAGE (DRN-0) FLOW RATES   PERIOD      2   STEP       46
 ----------------------------------------------------------------------------------------
   NUMBER   CELLID                    RATE       NAME                                    
 ----------------------------------------------------------------------------------------
     1      (1,1,1)               0.0000000      SURF                                    
     2      (1,1,2)               0.0000000      SURF                                    
     3      (1,1,3)               0.0000000      SURF                                    
     4      (1,1,4)               0.0000000      SURF                                    
     5      (1,1,5)               0.0000000      SURF                                    
     6      (1,1,6)               0.0000000      SURF                                    
     7      (1,1,7)               0.0000000      SURF                                    
     8      (1,1,8)               0.0000000      SURF                                    
     9      (1,1,9)               0.0000000      SURF                                    
     10     (1,1,10)              0.0000000      SURF                                    
     11     (1,2,1)               0.0000000      SURF                                    
     12     (1,2,2)               0.0000000      SURF                                    
     13     (1,2,3)               0.0000000      SURF                                    
     14     (1,2,4)               0.0000000      SURF                                    
     15     (1,2,5)               0.0000000      SURF                                    
     16     (1,2,6)               0.0000000      SURF                                    
     17     (1,2,7)               0.0000000      SURF                                    
     18     (1,2,8)               0.0000000      SURF                                    
     19     (1,2,9)               0.0000000      SURF                                    
     20     (1,2,10)              0.0000000      SURF                                    
     21     (1,3,1)               0.0000000      SURF                                    
     22     (1,3,2)               0.0000000      SURF                                    
     23     (1,3,3)               0.0000000      SURF                                    
     24     (1,3,4)               0.0000000      SURF                                    
     25     (1,3,5)               0.0000000      SURF                                    
     26     (1,3,6)               0.0000000      SURF                                    
     27     (1,3,7)               0.0000000      SURF                                    
     28     (1,3,8)               0.0000000      SURF                                    
     29     (1,3,9)               0.0000000      SURF                                    
     30     (1,3,10)              0.0000000      SURF                                    
     31     (1,4,1)               0.0000000      SURF                                    
     32     (1,4,2)               0.0000000      SURF                                    
     33     (1,4,3)               0.0000000      SURF                                    
     34     (1,4,4)               0.0000000      SURF                                    
     35     (1,4,5)               0.0000000      SURF                                    
     36     (1,4,6)               0.0000000      SURF                                    
     37     (1,4,7)               0.0000000      SURF                                    
     38     (1,4,8)               0.0000000      SURF                                    
     39     (1,4,9)               0.0000000      SURF                                    
     40     (1,4,10)              0.0000000      SURF                                    
     41     (1,5,1)               0.0000000      SURF                                    
     42     (1,5,2)               0.0000000      SURF                                    
     43     (1,5,3)               0.0000000      SURF                                    
     44     (1,5,4)               0.0000000      SURF                                    
     45     (1,5,5)               0.0000000      SURF                                    
     46     (1,5,6)               0.0000000      SURF                                    
     47     (1,5,7)               0.0000000      SURF                                    
     48     (1,5,8)               0.0000000      SURF                                    
     49     (1,5,9)               0.0000000      SURF                                    
     50     (1,5,10)              0.0000000      SURF                                    
     51     (1,6,1)               0.0000000      SURF                                    
     52     (1,6,2)               0.0000000      SURF                                    
     53     (1,6,3)               0.0000000      SURF                                    
     54     (1,6,4)               0.0000000      SURF                                    
     55     (1,6,5)               0.0000000      SURF                                    
     56     (1,6,6)               0.0000000      SURF                                    
     57     (1,6,7)              -9.72067937E-09 SURF                                    
     58     (1,6,8)               0.0000000      SURF                                    
     59     (1,6,9)               0.0000000      SURF                                    
     60     (1,6,10)              0.0000000      SURF                                    
     61     (1,7,1)               0.0000000      SURF                                    
     62     (1,7,2)               0.0000000      SURF                                    
     63     (1,7,3)               0.0000000      SURF                                    
     64     (1,7,4)               0.0000000      SURF                                    
     65     (1,7,5)               0.0000000      SURF                                    
     66     (1,7,6)               0.0000000      SURF                                    
     67     (1,7,7)               0.0000000      SURF                                    
     68     (1,7,8)               0.0000000      SURF                                    
     69     (1,7,9)               0.0000000      SURF                                    
     70     (1,7,10)              0.0000000      SURF                                    
     71     (1,8,1)               0.0000000      SURF                                    
     72     (1,8,2)               0.0000000      SURF                                    
     73     (1,8,3)               0.0000000      SURF                                    
     74     (1,8,4)               0.0000000      SURF                                    
     75     (1,8,5)               0.0000000      SURF                                    
     76     (1,8,6)               0.0000000      SURF                                    
     77     (1,8,7)               0.0000000      SURF                                    
     78     (1,8,8)               0.0000000      SURF                                    
     79     (1,8,9)               0.0000000      SURF                                    
     80     (1,8,10)              0.0000000      SURF                                    
     81     (1,9,1)               0.0000000      SURF                                    
     82     (1,9,2)               0.0000000      SURF                                    
     83     (1,9,3)               0.0000000      SURF                                    
     84     (1,9,4)               0.0000000      SURF                                    
     85     (1,9,5)               0.0000000      SURF                                    
     86     (1,9,6)               0.0000000      SURF                                    
     87     (1,9,7)               0.0000000      SURF                                    
     88     (1,9,8)               0.0000000      SURF                                    
     89     (1,9,9)               0.0000000      SURF                                    
     90     (1,9,10)              0.0000000      SURF                                    
     91     (1,10,1)              0.0000000      SURF                                    
     92     (1,10,2)              0.0000000      SURF                                    
     93     (1,10,3)              0.0000000      SURF                                    
     94     (1,10,4)              0.0000000      SURF                                    
     95     (1,10,5)              0.0000000      SURF                                    
     96     (1,10,6)              0.0000000      SURF                                    
     97     (1,10,7)             -3.36949597E-07 SURF                                    
     98     (1,10,8)              0.0000000      SURF                                    
     99     (1,10,9)              0.0000000      SURF                                    
    100     (1,10,10)             0.0000000      SURF                                    
    101     (1,11,1)              0.0000000      SURF                                    
    102     (1,11,2)              0.0000000      SURF                                    
    103     (1,11,3)              0.0000000      SURF                                    
    104     (1,11,4)              0.0000000      SURF                                    
    105     (1,11,5)              0.0000000      SURF                                    
    106     (1,11,6)              0.0000000      SURF                                    
    107     (1,11,7)              0.0000000      SURF                                    
    108     (1,11,8)              0.0000000      SURF                                    
    109     (1,11,9)              0.0000000      SURF                                    
    110     (1,11,10)             0.0000000      SURF                                    
    111     (1,12,1)              0.0000000      SURF                                    
    112     (1,12,2)              0.0000000      SURF                                    
    113     (1,12,3)              0.0000000      SURF                                    
    114     (1,12,4)              0.0000000      SURF                                    
    115     (1,12,5)              0.0000000      SURF                                    
    116     (1,12,6)              0.0000000      SURF                                    
    117     (1,12,7)              0.0000000      SURF                                    
    118     (1,12,8)              0.0000000      SURF                                    
    119     (1,12,9)              0.0000000      SURF                                    
    120     (1,12,10)             0.0000000      SURF                                    
    121     (1,13,1)              0.0000000      SURF                                    
    122     (1,13,2)              0.0000000      SURF                                    
    123     (1,13,3)              0.0000000      SURF                                    
    124     (1,13,4)              0.0000000      SURF                                    
    125     (1,13,5)              0.0000000      SURF                                    
    126     (1,13,6)              0.0000000      SURF                                    
    127     (1,13,7)              0.0000000      SURF                                    
    128     (1,13,8)              0.0000000      SURF                                    
    129     (1,13,9)              0.0000000      SURF                                    
    130     (1,13,10)             0.0000000      SURF                                    
    131     (1,14,1)              0.0000000      SURF                                    
    132     (1,14,2)              0.0000000      SURF                                    
    133     (1,14,3)              0.0000000      SURF                                    
    134     (1,14,4)              0.0000000      SURF                                    
    135     (1,14,5)              0.0000000      SURF                                    
    136     (1,14,6)              0.0000000      SURF                                    
    137     (1,14,7)              0.0000000      SURF                                    
    138     (1,14,8)              0.0000000      SURF                                    
    139     (1,14,9)              0.0000000      SURF                                    
    140     (1,14,10)             0.0000000      SURF                                    
    141     (1,15,1)              0.0000000      SURF                                    
    142     (1,15,2)              0.0000000      SURF                                    
    143     (1,15,3)              0.0000000      SURF                                    
    144     (1,15,4)              0.0000000      SURF                                    
    145     (1,15,5)              0.0000000      SURF                                    
    146     (1,15,6)              0.0000000      SURF                                    
    147     (1,15,7)              0.0000000      SURF                                    
    148     (1,15,8)              0.0000000      SURF                                    
    149     (1,15,9)              0.0000000      SURF                                    
    150     (1,15,10)             0.0000000      SURF                                    
 ----------------------------------------------------------------------------------------




 API PACKAGE (MAR) FLOW RATES   PERIOD      2   STEP       46
 -----------------------------------------------
   NUMBER   CELLID                    RATE      
 -----------------------------------------------
     1      (1,6,5)               34.869674     
     2      (1,6,6)               34.869674     
     3      (1,6,7)               34.869674     
     4      (1,10,5)              35.047811     
     5      (1,10,6)              35.047811     
     6      (1,10,7)              35.047811     
 -----------------------------------------------



1
  HEAD IN LAYER   1 AT END OF TIME STEP  46 IN STRESS PERIOD    2
  ---------------------------------------------------------------------------

            1           2           3           4           5           6           7           8           9          10
 ........................................................................................................................
   1   2.0797E-03  3.8593E-03  7.6921E-03  1.3310E-02  1.8804E-02  2.1035E-02  1.8851E-02  1.3477E-02  8.1951E-03  5.2045E-03
   2   4.1524E-03  7.9695E-03  1.6472E-02  2.9526E-02  4.2875E-02  4.8123E-02  4.2963E-02  2.9846E-02  1.7462E-02  1.0692E-02
   3   8.7656E-03  1.7481E-02  3.7784E-02  7.1104E-02  0.1078      0.1211      0.1080      7.1752E-02  3.9838E-02  2.3305E-02
   4   1.5401E-02  3.2096E-02  7.3610E-02  0.1495      0.2459      0.2740      0.2462      0.1506      7.7144E-02  4.2444E-02
   5   1.9802E-02  4.3285E-02  0.1083      0.2537      0.5058      0.5405      0.5062      0.2550      0.1127      5.6681E-02
   6   1.3295E-02  2.8677E-02  8.1560E-02  0.2724      0.9997      0.9084       1.000      0.2734      8.4631E-02  3.7423E-02
   7  -7.2798E-03 -2.9520E-02 -0.1080     -0.3284     -0.8580      -2.094     -0.8580     -0.3284     -0.1090     -3.5862E-02
   8  -2.0705E-02 -6.8447E-02 -0.2427     -0.8006      -2.573      -9.229      -2.573     -0.8013     -0.2463     -8.4666E-02
   9  -9.6446E-03 -3.2876E-02 -0.1126     -0.3329     -0.8601      -2.095     -0.8601     -0.3331     -0.1142     -4.0596E-02
  10   9.5110E-03  2.3297E-02  7.4337E-02  0.2660      0.9998      0.9102       1.000      0.2667      7.6409E-02  2.9846E-02
  11   1.5838E-02  3.7423E-02  9.9657E-02  0.2435      0.4968      0.5319      0.4971      0.2445      0.1031      4.8491E-02
  12   1.2257E-02  2.7266E-02  6.5954E-02  0.1392      0.2341      0.2617      0.2343      0.1399      6.8671E-02  3.5740E-02
  13   6.7727E-03  1.4335E-02  3.2561E-02  6.3525E-02  9.8439E-02  0.1111      9.8556E-02  6.3982E-02  3.4099E-02  1.8958E-02
  14   3.0726E-03  6.2370E-03  1.3517E-02  2.5084E-02  3.7205E-02  4.1964E-02  3.7262E-02  2.5301E-02  1.4229E-02  8.3059E-03
  15   1.4615E-03  2.8594E-03  5.9632E-03  1.0664E-02  1.5371E-02  1.7284E-02  1.5400E-02  1.0772E-02  6.3074E-03  3.8297E-03

 HEAD WILL BE SAVED ON UNIT 1100 AT END OF TIME STEP   46, STRESS PERIOD    2


  VOLUME BUDGET FOR ENTIRE MODEL AT END OF TIME STEP   46, STRESS PERIOD   2
  ---------------------------------------------------------------------------------------------------

     CUMULATIVE VOLUME      L**3       RATES FOR THIS TIME STEP      L**3/T          PACKAGE NAME    
     ------------------                 ------------------------                     ----------------

           IN:                                      IN:
           ---                                      ---
              STO-SS =          21.1105                STO-SS =       1.4433E-02     STORAGE                          
              STO-SY =       53378.0382                STO-SY =          31.4791     STORAGE                          
                 WEL =           0.0000                   WEL =           0.0000     WEL-1                            
                 DRN =           0.0000                   DRN =           0.0000     DRN-0                            
                 API =       92937.4721                   API =         209.7525     MAR                              
                 CHD =       2.0279E-08                   CHD =           0.0000     CHD_0                            

            TOTAL IN =      146336.6209              TOTAL IN =         241.2460

          OUT:                                     OUT:
          ----                                     ----
              STO-SS =          17.3653                STO-SS =       1.4850E-02     STORAGE                          
              STO-SY =       33838.0799                STO-SY =          29.2761     STORAGE                          
                 WEL =      112481.1755                   WEL =         211.9550     WEL-1                            
                 DRN =       1.5120E-04                   DRN =       3.4667E-07     DRN-0                            
                 API =           0.0000                   API =           0.0000     MAR                              
                 CHD =       2.0705E-08                   CHD =           0.0000     CHD_0                            

           TOTAL OUT =      146336.6209             TOTAL OUT =         241.2460

            IN - OUT =      -1.1817E-06              IN - OUT =      -3.0083E-09

 PERCENT DISCREPANCY =          -0.00     PERCENT DISCREPANCY =          -0.00




         TIME SUMMARY AT END OF TIME STEP   46 IN STRESS PERIOD    2
                    SECONDS     MINUTES      HOURS       DAYS        YEARS
                    -----------------------------------------------------------
   TIME STEP LENGTH 8.64000E+05  14400.      240.00      10.000     2.73785E-02
 STRESS PERIOD TIME 3.97440E+07 6.62400E+05  11040.      460.00      1.2594    
         TOTAL TIME 3.98304E+07 6.63840E+05  11064.      461.00      1.2621    


end timestep


start timestep kper="2" kstp="47" mode="normal"

 UBDSV1 SAVING           STO-SS ON UNIT   1099 AT TIME STEP     47, STRESS PERIOD      2
 UBDSV1 SAVING           STO-SY ON UNIT   1099 AT TIME STEP     47, STRESS PERIOD      2
 UBDSV1 SAVING     FLOW-JA-FACE ON UNIT   1099 AT TIME STEP     47, STRESS PERIOD      2
 UBDSV06 SAVING       DATA-SPDIS IN MODEL GWF              PACKAGE NPF             CONNECTED TO MODEL GWF              PACKAGE NPF              ON UNIT   1099 AT TIME STEP     47, STRESS PERIOD      2
 UBDSV06 SAVING              WEL IN MODEL GWF              PACKAGE GWF             CONNECTED TO MODEL GWF              PACKAGE WEL-1            ON UNIT   1099 AT TIME STEP     47, STRESS PERIOD      2
 UBDSV06 SAVING              DRN IN MODEL GWF              PACKAGE GWF             CONNECTED TO MODEL GWF              PACKAGE DRN-0            ON UNIT   1099 AT TIME STEP     47, STRESS PERIOD      2
 UBDSV06 SAVING              API IN MODEL GWF              PACKAGE GWF             CONNECTED TO MODEL GWF              PACKAGE MAR              ON UNIT   1099 AT TIME STEP     47, STRESS PERIOD      2
 UBDSV06 SAVING              CHD IN MODEL GWF              PACKAGE GWF             CONNECTED TO MODEL GWF              PACKAGE CHD_0            ON UNIT   1099 AT TIME STEP     47, STRESS PERIOD      2

    CALCULATED INTERCELL FLOW FOR PERIOD 2 STEP 47
(1,1,1): (1,1,2) 1.898973E-02 (1,2,1) 2.200850E-02
(1,1,2): (1,1,1) -1.898973E-02 (1,1,3) 4.060651E-02 (1,2,2) 4.310424E-02
(1,1,3): (1,1,2) -4.060651E-02 (1,1,4) 5.907172E-02 (1,2,3) 9.119703E-02
(1,1,4): (1,1,3) -5.907172E-02 (1,1,5) 5.744717E-02 (1,2,4) 0.167438
(1,1,5): (1,1,4) -5.744717E-02 (1,1,6) 2.330598E-02 (1,2,5) 0.247813
(1,1,6): (1,1,5) -2.330598E-02 (1,1,7) -2.277426E-02 (1,2,6) 0.278747
(1,1,7): (1,1,6) 2.277426E-02 (1,1,8) -5.610922E-02 (1,2,7) 0.248274
(1,1,8): (1,1,7) 5.610922E-02 (1,1,9) -5.537127E-02 (1,2,8) 0.169114
(1,1,9): (1,1,8) 5.537127E-02 (1,1,10) -3.149027E-02 (1,2,9) 9.641917E-02
(1,1,10): (1,1,9) 3.149027E-02 (1,2,10) 5.766082E-02
(1,2,1): (1,1,1) -2.200850E-02 (1,2,2) 4.008483E-02 (1,3,1) 4.836177E-02
(1,2,2): (1,1,2) -4.310424E-02 (1,2,1) -4.008483E-02 (1,2,3) 8.869811E-02 (1,3,2) 9.855908E-02
(1,2,3): (1,1,3) -9.119703E-02 (1,2,2) -8.869811E-02 (1,2,4) 0.135289 (1,3,3) 0.219129
(1,2,4): (1,1,4) -0.167438 (1,2,3) -0.135289 (1,2,5) 0.137734 (1,3,4) 0.426177
(1,2,5): (1,1,5) -0.247813 (1,2,4) -0.137734 (1,2,6) 5.417217E-02 (1,3,5) 0.665342
(1,2,6): (1,1,6) -0.278747 (1,2,5) -5.417217E-02 (1,2,7) -5.317991E-02 (1,3,6) 0.748464
(1,2,7): (1,1,7) -0.248274 (1,2,6) 5.317991E-02 (1,2,8) -0.135181 (1,3,7) 0.666316
(1,2,8): (1,1,8) -0.169114 (1,2,7) 0.135181 (1,2,9) -0.128036 (1,3,8) 0.429742
(1,2,9): (1,1,9) -9.641917E-02 (1,2,8) 0.128036 (1,2,10) -7.023851E-02 (1,3,9) 0.230438
(1,2,10): (1,1,10) -5.766082E-02 (1,2,9) 7.023851E-02 (1,3,10) 0.130968
(1,3,1): (1,2,1) -4.836177E-02 (1,3,2) 9.027800E-02 (1,4,1) 6.824040E-02
(1,3,2): (1,2,2) -9.855908E-02 (1,3,1) -9.027800E-02 (1,3,3) 0.209257 (1,4,2) 0.148867
(1,3,3): (1,2,3) -0.219129 (1,3,2) -0.209257 (1,3,4) 0.342165 (1,4,3) 0.363770
(1,3,4): (1,2,4) -0.426177 (1,3,3) -0.342165 (1,3,5) 0.376227 (1,4,4) 0.799515
(1,3,5): (1,2,5) -0.665342 (1,3,4) -0.376227 (1,3,6) 0.136804 (1,4,5) 1.41981
(1,3,6): (1,2,6) -0.748464 (1,3,5) -0.136804 (1,3,7) -0.134841 (1,4,6) 1.57607
(1,3,7): (1,2,7) -0.666316 (1,3,6) 0.134841 (1,3,8) -0.371077 (1,4,7) 1.42112
(1,3,8): (1,2,8) -0.429742 (1,3,7) 0.371077 (1,3,9) -0.327140 (1,4,8) 0.804307
(1,3,9): (1,2,9) -0.230438 (1,3,8) 0.327140 (1,3,10) -0.169648 (1,4,9) 0.379320
(1,3,10): (1,2,10) -0.130968 (1,3,9) 0.169648 (1,4,10) 0.195408
(1,4,1): (1,3,1) -6.824040E-02 (1,4,2) 0.170923 (1,5,1) 4.298384E-02
(1,4,2): (1,3,2) -0.148867 (1,4,1) -0.170923 (1,4,3) 0.424287 (1,5,2) 0.109409
(1,4,3): (1,3,3) -0.363770 (1,4,2) -0.424287 (1,4,4) 0.777819 (1,5,3) 0.343775
(1,4,4): (1,3,4) -0.799515 (1,4,3) -0.777819 (1,4,5) 0.994039 (1,5,4) 1.05727
(1,4,5): (1,3,5) -1.41981 (1,4,4) -0.994039 (1,4,6) 0.291213 (1,5,5) 2.72081
(1,4,6): (1,3,6) -1.57607 (1,4,5) -0.291213 (1,4,7) -0.287954 (1,5,6) 2.80031
(1,4,7): (1,3,7) -1.42112 (1,4,6) 0.287954 (1,4,8) -0.985361 (1,5,7) 2.72163
(1,4,8): (1,3,8) -0.804307 (1,4,7) 0.985361 (1,4,9) -0.751913 (1,5,8) 1.06009
(1,4,9): (1,3,9) -0.379320 (1,4,8) 0.751913 (1,4,10) -0.353513 (1,5,9) 0.353037
(1,4,10): (1,3,10) -0.195408 (1,4,9) 0.353513 (1,5,10) 0.139296
(1,5,1): (1,4,1) -4.298384E-02 (1,5,2) 0.237432 (1,6,1) -7.101581E-02
(1,5,2): (1,4,2) -0.109409 (1,5,1) -0.237432 (1,5,3) 0.659375 (1,6,2) -0.157804
(1,5,3): (1,4,3) -0.343775 (1,5,2) -0.659375 (1,5,4) 1.49426 (1,6,3) -0.291341
(1,5,4): (1,4,4) -1.05727 (1,5,3) -1.49426 (1,5,5) 2.65663 (1,6,4) 0.162627
(1,5,5): (1,4,5) -2.72081 (1,5,4) -2.65663 (1,5,6) 0.369173 (1,6,5) 5.41076
(1,5,6): (1,4,6) -2.80031 (1,5,5) -0.369173 (1,5,7) -0.365106 (1,6,6) 3.99477
(1,5,7): (1,4,7) -2.72163 (1,5,6) 0.365106 (1,5,8) -2.64578 (1,6,7) 5.40977
(1,5,8): (1,4,8) -1.06009 (1,5,7) 2.64578 (1,5,9) -1.46165 (1,6,8) 0.158405
(1,5,9): (1,4,9) -0.353037 (1,5,8) 1.46165 (1,5,10) -0.567701 (1,6,9) -0.306858
(1,5,10): (1,4,10) -0.139296 (1,5,9) 0.567701 (1,6,10) -0.208668
(1,6,1): (1,5,1) 7.101581E-02 (1,6,2) 0.150576 (1,7,1) -0.214232
(1,6,2): (1,5,2) 0.157804 (1,6,1) -0.150576 (1,6,3) 0.525361 (1,7,2) -0.598753
(1,6,3): (1,5,3) 0.291341 (1,6,2) -0.525361 (1,6,4) 1.95519 (1,7,3) -1.94065
(1,6,4): (1,5,4) -0.162627 (1,6,3) -1.95519 (1,6,5) 8.01758 (1,7,4) -6.22060
(1,6,5): (1,5,5) -5.41076 (1,6,4) -8.01758 (1,6,6) -0.997602 (1,7,5) -20.5073
(1,6,6): (1,5,6) -3.99477 (1,6,5) 0.997602 (1,6,7) 1.00075 (1,7,6) -32.8099
(1,6,7): (1,5,7) -5.40977 (1,6,6) -1.00075 (1,6,8) -8.00974 (1,7,7) -20.5103
(1,6,8): (1,5,8) -0.158405 (1,6,7) 8.00974 (1,6,9) -1.93390 (1,7,8) -6.23195
(1,6,9): (1,5,9) 0.306858 (1,6,8) 1.93390 (1,6,10) -0.469263 (1,7,9) -1.98380
(1,6,10): (1,5,10) 0.208668 (1,6,9) 0.469263 (1,7,10) -0.756004
(1,7,1): (1,6,1) 0.214232 (1,7,2) -0.232776 (1,8,1) -0.138170
(1,7,2): (1,6,2) 0.598753 (1,7,1) 0.232776 (1,7,3) -0.804402 (1,8,2) -0.395147
(1,7,3): (1,6,3) 1.94065 (1,7,2) 0.804402 (1,7,4) -2.20282 (1,8,3) -1.34448
(1,7,4): (1,6,4) 6.22060 (1,7,3) 2.20282 (1,7,5) -5.12065 (1,8,4) -4.58327
(1,7,5): (1,6,5) 20.5073 (1,7,4) 5.12065 (1,7,6) -11.2724 (1,8,5) -15.6803
(1,7,6): (1,6,6) 32.8099 (1,7,5) 11.2724 (1,7,7) 11.2730 (1,8,6) -56.3510
(1,7,7): (1,6,7) 20.5103 (1,7,6) -11.2730 (1,7,8) 5.11975 (1,8,7) -15.6821
(1,7,8): (1,6,8) 6.23195 (1,7,7) -5.11975 (1,7,9) 2.19186 (1,8,8) -4.59052
(1,7,9): (1,6,9) 1.98380 (1,7,8) -2.19186 (1,7,10) 0.745903 (1,8,9) -1.37194
(1,7,10): (1,6,10) 0.756004 (1,7,9) -0.745903 (1,8,10) -0.495816
(1,8,1): (1,7,1) 0.138170 (1,8,2) -0.489997 (1,9,1) 0.114511
(1,8,2): (1,7,2) 0.395147 (1,8,1) 0.489997 (1,8,3) -1.75769 (1,9,2) 0.362125
(1,8,3): (1,7,3) 1.34448 (1,8,2) 1.75769 (1,8,4) -5.47097 (1,9,3) 1.30035
(1,8,4): (1,7,4) 4.58327 (1,8,3) 5.47097 (1,8,5) -16.2867 (1,9,4) 4.54045
(1,8,5): (1,7,5) 15.6803 (1,8,4) 16.2867 (1,8,6) -49.3302 (1,9,5) 15.6597
(1,8,6): (1,7,6) 56.3510 (1,8,5) 49.3302 (1,8,7) 49.3284 (1,9,6) 56.3374
(1,8,7): (1,7,7) 15.6821 (1,8,6) -49.3284 (1,8,8) 16.2793 (1,9,7) 15.6607
(1,8,8): (1,7,8) 4.59052 (1,8,7) -16.2793 (1,8,9) 5.43831 (1,9,8) 4.54514
(1,8,9): (1,7,9) 1.37194 (1,8,8) -5.43831 (1,8,10) 1.62426 (1,9,9) 1.32140
(1,8,10): (1,7,10) 0.495816 (1,8,9) -1.62426 (1,9,10) 0.449156
(1,9,1): (1,8,1) -0.114511 (1,9,2) -0.242066 (1,10,1) 0.199801
(1,9,2): (1,8,2) -0.362125 (1,9,1) 0.242066 (1,9,3) -0.815142 (1,10,2) 0.578235
(1,9,3): (1,8,3) -1.30035 (1,9,2) 0.815142 (1,9,4) -2.20007 (1,10,3) 1.91285
(1,9,4): (1,8,4) -4.54045 (1,9,3) 2.20007 (1,9,5) -5.09586 (1,10,4) 6.19709
(1,9,5): (1,8,5) -15.6597 (1,9,4) 5.09586 (1,9,6) -11.2610 (1,10,5) 20.5297
(1,9,6): (1,8,6) -56.3374 (1,9,5) 11.2610 (1,9,7) 11.2608 (1,10,6) 32.8439
(1,9,7): (1,8,7) -15.6607 (1,9,6) -11.2608 (1,9,8) 5.09319 (1,10,7) 20.5320
(1,9,8): (1,8,8) -4.54514 (1,9,7) -5.09319 (1,9,9) 2.18514 (1,10,8) 6.20683
(1,9,9): (1,8,9) -1.32140 (1,9,8) -2.18514 (1,9,10) 0.749347 (1,10,9) 1.95205
(1,9,10): (1,8,10) -0.449156 (1,9,9) -0.749347 (1,10,10) 0.727033
(1,10,1): (1,9,1) -0.199801 (1,10,2) 0.135287 (1,11,1) 6.891243E-02
(1,10,2): (1,9,2) -0.578235 (1,10,1) -0.135287 (1,10,3) 0.507725 (1,11,2) 0.152559
(1,10,3): (1,9,3) -1.91285 (1,10,2) -0.507725 (1,10,4) 1.96302 (1,11,3) 0.276744
(1,10,4): (1,9,4) -6.19709 (1,10,3) -1.96302 (1,10,5) 8.08665 (1,11,4) -0.200354
(1,10,5): (1,9,5) -20.5297 (1,10,4) -8.08665 (1,10,6) -0.979754 (1,11,5) -5.50748
(1,10,6): (1,9,6) -32.8439 (1,10,5) 0.979754 (1,10,7) 0.981595 (1,11,6) -4.10488
(1,10,7): (1,9,7) -20.5320 (1,10,6) -0.981595 (1,10,8) -8.08166 (1,11,7) -5.50653
(1,10,8): (1,9,8) -6.20683 (1,10,7) 8.08166 (1,10,9) -1.94807 (1,11,8) -0.196319
(1,10,9): (1,9,9) -1.95205 (1,10,8) 1.94807 (1,10,10) -0.463416 (1,11,9) 0.291742
(1,10,10): (1,9,10) -0.727033 (1,10,9) 0.463416 (1,11,10) 0.201862
(1,11,1): (1,10,1) -6.891243E-02 (1,11,2) 0.218989 (1,12,1) -3.498480E-02
(1,11,2): (1,10,2) -0.152559 (1,11,1) -0.218989 (1,11,3) 0.632340 (1,12,2) -9.954058E-02
(1,11,3): (1,10,3) -0.276744 (1,11,2) -0.632340 (1,11,4) 1.47862 (1,12,3) -0.334670
(1,11,4): (1,10,4) 0.200354 (1,11,3) -1.47862 (1,11,5) 2.66670 (1,12,4) -1.05949
(1,11,5): (1,10,5) 5.50748 (1,11,4) -2.66670 (1,11,6) 0.372865 (1,12,5) -2.74793
(1,11,6): (1,10,6) 4.10488 (1,11,5) -0.372865 (1,11,7) -0.370133 (1,12,6) -2.83660
(1,11,7): (1,10,7) 5.50653 (1,11,6) 0.370133 (1,11,8) -2.65873 (1,12,7) -2.74844
(1,11,8): (1,10,8) 0.196319 (1,11,7) 2.65873 (1,11,9) -1.45265 (1,12,8) -1.06141
(1,11,9): (1,10,9) -0.291742 (1,11,8) 1.45265 (1,11,10) -0.553523 (1,12,9) -0.341715
(1,11,10): (1,10,10) -0.201862 (1,11,9) 0.553523 (1,12,10) -0.125000
(1,12,1): (1,11,1) 3.498480E-02 (1,12,2) 0.154357 (1,13,1) -5.672775E-02
(1,12,2): (1,11,2) 9.954058E-02 (1,12,1) -0.154357 (1,12,3) 0.396527 (1,13,2) -0.132260
(1,12,3): (1,11,3) 0.334670 (1,12,2) -0.396527 (1,12,4) 0.750923 (1,13,3) -0.339992
(1,12,4): (1,11,4) 1.05949 (1,12,3) -0.750923 (1,12,5) 0.979487 (1,13,4) -0.772131
(1,12,5): (1,11,5) 2.74793 (1,12,4) -0.979487 (1,12,6) 0.285958 (1,13,5) -1.39530
(1,12,6): (1,11,6) 2.83660 (1,12,5) -0.285958 (1,12,7) -0.283727 (1,13,6) -1.55306
(1,12,7): (1,11,7) 2.74844 (1,12,6) 0.283727 (1,12,8) -0.973052 (1,13,7) -1.39621
(1,12,8): (1,11,8) 1.06141 (1,12,7) 0.973052 (1,12,9) -0.730299 (1,13,8) -0.775710
(1,12,9): (1,11,9) 0.341715 (1,12,8) 0.730299 (1,12,10) -0.336360 (1,13,9) -0.352442
(1,12,10): (1,11,10) 0.125000 (1,12,9) 0.336360 (1,13,10) -0.172076
(1,13,1): (1,12,1) 5.672775E-02 (1,13,2) 7.880813E-02 (1,14,1) -3.908598E-02
(1,13,2): (1,12,2) 0.132260 (1,13,1) -7.880813E-02 (1,13,3) 0.188679 (1,14,2) -8.441397E-02
(1,13,3): (1,12,3) 0.339992 (1,13,2) -0.188679 (1,13,4) 0.318872 (1,14,3) -0.196686
(1,13,4): (1,12,4) 0.772131 (1,13,3) -0.318872 (1,13,5) 0.358765 (1,14,4) -0.395279
(1,13,5): (1,12,5) 1.39530 (1,13,4) -0.358765 (1,13,6) 0.130043 (1,14,5) -0.629141
(1,13,6): (1,12,6) 1.55306 (1,13,5) -0.130043 (1,13,7) -0.128721 (1,14,6) -0.710331
(1,13,7): (1,12,7) 1.39621 (1,13,6) 0.128721 (1,13,8) -0.355025 (1,14,7) -0.629819
(1,13,8): (1,12,8) 0.775710 (1,13,7) 0.355025 (1,13,9) -0.307217 (1,14,8) -0.397905
(1,13,9): (1,12,9) 0.352442 (1,13,8) 0.307217 (1,13,10) -0.156022 (1,14,9) -0.205539
(1,13,10): (1,12,10) 0.172076 (1,13,9) 0.156022 (1,14,10) -0.111300
(1,14,1): (1,13,1) 3.908598E-02 (1,14,2) 3.348268E-02 (1,15,1) -1.726560E-02
(1,14,2): (1,13,2) 8.441397E-02 (1,14,1) -3.348268E-02 (1,14,3) 7.641641E-02 (1,15,2) -3.569229E-02
(1,14,3): (1,13,3) 0.196686 (1,14,2) -7.641641E-02 (1,14,4) 0.120429 (1,15,3) -7.896215E-02
(1,14,4): (1,13,4) 0.395279 (1,14,3) -0.120429 (1,14,5) 0.125518 (1,15,4) -0.149655
(1,14,5): (1,13,5) 0.629141 (1,14,4) -0.125518 (1,14,6) 4.930966E-02 (1,15,5) -0.225750
(1,14,6): (1,13,6) 0.710331 (1,14,5) -4.930966E-02 (1,14,7) -4.866258E-02 (1,15,6) -0.255018
(1,14,7): (1,13,7) 0.629819 (1,14,6) 4.866258E-02 (1,14,8) -0.123732 (1,15,7) -0.226065
(1,14,8): (1,13,8) 0.397905 (1,14,7) 0.123732 (1,14,9) -0.115022 (1,15,8) -0.150862
(1,14,9): (1,13,9) 0.205539 (1,14,8) 0.115022 (1,14,10) -6.182870E-02 (1,15,9) -8.294189E-02
(1,14,10): (1,13,10) 0.111300 (1,14,9) 6.182870E-02 (1,15,10) -4.740331E-02
(1,15,1): (1,14,1) 1.726560E-02 (1,15,2) 1.505639E-02
(1,15,2): (1,14,2) 3.569229E-02 (1,15,1) -1.505639E-02 (1,15,3) 3.314765E-02
(1,15,3): (1,14,3) 7.896215E-02 (1,15,2) -3.314765E-02 (1,15,4) 4.975590E-02
(1,15,4): (1,14,4) 0.149655 (1,15,3) -4.975590E-02 (1,15,5) 4.949896E-02
(1,15,5): (1,14,5) 0.225750 (1,15,4) -4.949896E-02 (1,15,6) 2.010146E-02
(1,15,6): (1,14,6) 0.255018 (1,15,5) -2.010146E-02 (1,15,7) -1.976891E-02
(1,15,7): (1,14,7) 0.226065 (1,15,6) 1.976891E-02 (1,15,8) -4.860403E-02
(1,15,8): (1,14,8) 0.150862 (1,15,7) 4.860403E-02 (1,15,9) -4.712682E-02
(1,15,9): (1,14,9) 8.294189E-02 (1,15,8) 4.712682E-02 (1,15,10) -2.629760E-02
(1,15,10): (1,14,10) 4.740331E-02 (1,15,9) 2.629760E-02

 WEL PACKAGE (WEL-1) FLOW RATES   PERIOD      2   STEP       47
 ----------------------------------------------------------------------------------------
   NUMBER   CELLID                    RATE       NAME                                    
 ----------------------------------------------------------------------------------------
     1      (1,8,6)              -211.58588      WEL                                     
 ----------------------------------------------------------------------------------------




 DRN PACKAGE (DRN-0) FLOW RATES   PERIOD      2   STEP       47
 ----------------------------------------------------------------------------------------
   NUMBER   CELLID                    RATE       NAME                                    
 ----------------------------------------------------------------------------------------
     1      (1,1,1)               0.0000000      SURF                                    
     2      (1,1,2)               0.0000000      SURF                                    
     3      (1,1,3)               0.0000000      SURF                                    
     4      (1,1,4)               0.0000000      SURF                                    
     5      (1,1,5)               0.0000000      SURF                                    
     6      (1,1,6)               0.0000000      SURF                                    
     7      (1,1,7)               0.0000000      SURF                                    
     8      (1,1,8)               0.0000000      SURF                                    
     9      (1,1,9)               0.0000000      SURF                                    
     10     (1,1,10)              0.0000000      SURF                                    
     11     (1,2,1)               0.0000000      SURF                                    
     12     (1,2,2)               0.0000000      SURF                                    
     13     (1,2,3)               0.0000000      SURF                                    
     14     (1,2,4)               0.0000000      SURF                                    
     15     (1,2,5)               0.0000000      SURF                                    
     16     (1,2,6)               0.0000000      SURF                                    
     17     (1,2,7)               0.0000000      SURF                                    
     18     (1,2,8)               0.0000000      SURF                                    
     19     (1,2,9)               0.0000000      SURF                                    
     20     (1,2,10)              0.0000000      SURF                                    
     21     (1,3,1)               0.0000000      SURF                                    
     22     (1,3,2)               0.0000000      SURF                                    
     23     (1,3,3)               0.0000000      SURF                                    
     24     (1,3,4)               0.0000000      SURF                                    
     25     (1,3,5)               0.0000000      SURF                                    
     26     (1,3,6)               0.0000000      SURF                                    
     27     (1,3,7)               0.0000000      SURF                                    
     28     (1,3,8)               0.0000000      SURF                                    
     29     (1,3,9)               0.0000000      SURF                                    
     30     (1,3,10)              0.0000000      SURF                                    
     31     (1,4,1)               0.0000000      SURF                                    
     32     (1,4,2)               0.0000000      SURF                                    
     33     (1,4,3)               0.0000000      SURF                                    
     34     (1,4,4)               0.0000000      SURF                                    
     35     (1,4,5)               0.0000000      SURF                                    
     36     (1,4,6)               0.0000000      SURF                                    
     37     (1,4,7)               0.0000000      SURF                                    
     38     (1,4,8)               0.0000000      SURF                                    
     39     (1,4,9)               0.0000000      SURF                                    
     40     (1,4,10)              0.0000000      SURF                                    
     41     (1,5,1)               0.0000000      SURF                                    
     42     (1,5,2)               0.0000000      SURF                                    
     43     (1,5,3)               0.0000000      SURF                                    
     44     (1,5,4)               0.0000000      SURF                                    
     45     (1,5,5)               0.0000000      SURF                                    
     46     (1,5,6)               0.0000000      SURF                                    
     47     (1,5,7)               0.0000000      SURF                                    
     48     (1,5,8)               0.0000000      SURF                                    
     49     (1,5,9)               0.0000000      SURF                                    
     50     (1,5,10)              0.0000000      SURF                                    
     51     (1,6,1)               0.0000000      SURF                                    
     52     (1,6,2)               0.0000000      SURF                                    
     53     (1,6,3)               0.0000000      SURF                                    
     54     (1,6,4)               0.0000000      SURF                                    
     55     (1,6,5)               0.0000000      SURF                                    
     56     (1,6,6)               0.0000000      SURF                                    
     57     (1,6,7)              -1.00117177E-08 SURF                                    
     58     (1,6,8)               0.0000000      SURF                                    
     59     (1,6,9)               0.0000000      SURF                                    
     60     (1,6,10)              0.0000000      SURF                                    
     61     (1,7,1)               0.0000000      SURF                                    
     62     (1,7,2)               0.0000000      SURF                                    
     63     (1,7,3)               0.0000000      SURF                                    
     64     (1,7,4)               0.0000000      SURF                                    
     65     (1,7,5)               0.0000000      SURF                                    
     66     (1,7,6)               0.0000000      SURF                                    
     67     (1,7,7)               0.0000000      SURF                                    
     68     (1,7,8)               0.0000000      SURF                                    
     69     (1,7,9)               0.0000000      SURF                                    
     70     (1,7,10)              0.0000000      SURF                                    
     71     (1,8,1)               0.0000000      SURF                                    
     72     (1,8,2)               0.0000000      SURF                                    
     73     (1,8,3)               0.0000000      SURF                                    
     74     (1,8,4)               0.0000000      SURF                                    
     75     (1,8,5)               0.0000000      SURF                                    
     76     (1,8,6)               0.0000000      SURF                                    
     77     (1,8,7)               0.0000000      SURF                                    
     78     (1,8,8)               0.0000000      SURF                                    
     79     (1,8,9)               0.0000000      SURF                                    
     80     (1,8,10)              0.0000000      SURF                                    
     81     (1,9,1)               0.0000000      SURF                                    
     82     (1,9,2)               0.0000000      SURF                                    
     83     (1,9,3)               0.0000000      SURF                                    
     84     (1,9,4)               0.0000000      SURF                                    
     85     (1,9,5)               0.0000000      SURF                                    
     86     (1,9,6)               0.0000000      SURF                                    
     87     (1,9,7)               0.0000000      SURF                                    
     88     (1,9,8)               0.0000000      SURF                                    
     89     (1,9,9)               0.0000000      SURF                                    
     90     (1,9,10)              0.0000000      SURF                                    
     91     (1,10,1)              0.0000000      SURF                                    
     92     (1,10,2)              0.0000000      SURF                                    
     93     (1,10,3)              0.0000000      SURF                                    
     94     (1,10,4)              0.0000000      SURF                                    
     95     (1,10,5)              0.0000000      SURF                                    
     96     (1,10,6)              0.0000000      SURF                                    
     97     (1,10,7)             -3.30197508E-07 SURF                                    
     98     (1,10,8)              0.0000000      SURF                                    
     99     (1,10,9)              0.0000000      SURF                                    
    100     (1,10,10)             0.0000000      SURF                                    
    101     (1,11,1)              0.0000000      SURF                                    
    102     (1,11,2)              0.0000000      SURF                                    
    103     (1,11,3)              0.0000000      SURF                                    
    104     (1,11,4)              0.0000000      SURF                                    
    105     (1,11,5)              0.0000000      SURF                                    
    106     (1,11,6)              0.0000000      SURF                                    
    107     (1,11,7)              0.0000000      SURF                                    
    108     (1,11,8)              0.0000000      SURF                                    
    109     (1,11,9)              0.0000000      SURF                                    
    110     (1,11,10)             0.0000000      SURF                                    
    111     (1,12,1)              0.0000000      SURF                                    
    112     (1,12,2)              0.0000000      SURF                                    
    113     (1,12,3)              0.0000000      SURF                                    
    114     (1,12,4)              0.0000000      SURF                                    
    115     (1,12,5)              0.0000000      SURF                                    
    116     (1,12,6)              0.0000000      SURF                                    
    117     (1,12,7)              0.0000000      SURF                                    
    118     (1,12,8)              0.0000000      SURF                                    
    119     (1,12,9)              0.0000000      SURF                                    
    120     (1,12,10)             0.0000000      SURF                                    
    121     (1,13,1)              0.0000000      SURF                                    
    122     (1,13,2)              0.0000000      SURF                                    
    123     (1,13,3)              0.0000000      SURF                                    
    124     (1,13,4)              0.0000000      SURF                                    
    125     (1,13,5)              0.0000000      SURF                                    
    126     (1,13,6)              0.0000000      SURF                                    
    127     (1,13,7)              0.0000000      SURF                                    
    128     (1,13,8)              0.0000000      SURF                                    
    129     (1,13,9)              0.0000000      SURF                                    
    130     (1,13,10)             0.0000000      SURF                                    
    131     (1,14,1)              0.0000000      SURF                                    
    132     (1,14,2)              0.0000000      SURF                                    
    133     (1,14,3)              0.0000000      SURF                                    
    134     (1,14,4)              0.0000000      SURF                                    
    135     (1,14,5)              0.0000000      SURF                                    
    136     (1,14,6)              0.0000000      SURF                                    
    137     (1,14,7)              0.0000000      SURF                                    
    138     (1,14,8)              0.0000000      SURF                                    
    139     (1,14,9)              0.0000000      SURF                                    
    140     (1,14,10)             0.0000000      SURF                                    
    141     (1,15,1)              0.0000000      SURF                                    
    142     (1,15,2)              0.0000000      SURF                                    
    143     (1,15,3)              0.0000000      SURF                                    
    144     (1,15,4)              0.0000000      SURF                                    
    145     (1,15,5)              0.0000000      SURF                                    
    146     (1,15,6)              0.0000000      SURF                                    
    147     (1,15,7)              0.0000000      SURF                                    
    148     (1,15,8)              0.0000000      SURF                                    
    149     (1,15,9)              0.0000000      SURF                                    
    150     (1,15,10)             0.0000000      SURF                                    
 ----------------------------------------------------------------------------------------




 API PACKAGE (MAR) FLOW RATES   PERIOD      2   STEP       47
 -----------------------------------------------
   NUMBER   CELLID                    RATE      
 -----------------------------------------------
     1      (1,6,5)               34.930577     
     2      (1,6,6)               34.930577     
     3      (1,6,7)               34.930577     
     4      (1,10,5)              35.101800     
     5      (1,10,6)              35.101800     
     6      (1,10,7)              35.101800     
 -----------------------------------------------



1
  HEAD IN LAYER   1 AT END OF TIME STEP  47 IN STRESS PERIOD    2
  ---------------------------------------------------------------------------

            1           2           3           4           5           6           7           8           9          10
 ........................................................................................................................
   1   2.2846E-03  4.1828E-03  8.2401E-03  1.4139E-02  1.9872E-02  2.2198E-02  1.9925E-02  1.4326E-02  8.7963E-03  5.6501E-03
   2   4.4845E-03  8.4896E-03  1.7344E-02  3.0831E-02  4.4544E-02  4.9934E-02  4.4642E-02  3.1184E-02  1.8421E-02  1.1410E-02
   3   9.3161E-03  1.8327E-02  3.9171E-02  7.3140E-02  0.1104      0.1239      0.1105      7.3844E-02  4.1369E-02  2.4474E-02
   4   1.6129E-02  3.3165E-02  7.5277E-02  0.1519      0.2489      0.2772      0.2492      0.1531      7.9004E-02  4.3930E-02
   5   2.0419E-02  4.4058E-02  0.1093      0.2550      0.5078      0.5428      0.5082      0.2564      0.1139      5.7779E-02
   6   1.3332E-02  2.8347E-02  8.0463E-02  0.2708      0.9997      0.9090       1.000      0.2718      8.3570E-02  3.7032E-02
   7  -8.0630E-03 -3.1359E-02 -0.1121     -0.3348     -0.8646      -2.099     -0.8646     -0.3349     -0.1132     -3.8289E-02
   8  -2.1891E-02 -7.0998E-02 -0.2480     -0.8090      -2.581      -9.230      -2.581     -0.8098     -0.2519     -8.8061E-02
   9  -1.0428E-02 -3.4660E-02 -0.1165     -0.3391     -0.8665      -2.099     -0.8665     -0.3393     -0.1182     -4.2952E-02
  10   9.5330E-03  2.3031E-02  7.3433E-02  0.2647      0.9998      0.9108       1.000      0.2653      7.5532E-02  2.9537E-02
  11   1.6413E-02  3.8228E-02  0.1008      0.2452      0.4991      0.5345      0.4994      0.2462      0.1044      4.9624E-02
  12   1.2920E-02  2.8312E-02  6.7698E-02  0.1417      0.2374      0.2653      0.2376      0.1426      7.0586E-02  3.7186E-02
  13   7.2548E-03  1.5124E-02  3.3928E-02  6.5607E-02  0.1011      0.1140      0.1013      6.6109E-02  3.5589E-02  2.0042E-02
  14   3.3490E-03  6.6950E-03  1.4326E-02  2.6337E-02  3.8840E-02  4.3750E-02  3.8905E-02  2.6579E-02  1.5108E-02  8.9342E-03
  15   1.6230E-03  3.1282E-03  6.4408E-03  1.1411E-02  1.6353E-02  1.8359E-02  1.6386E-02  1.1533E-02  6.8260E-03  4.1981E-03

 HEAD WILL BE SAVED ON UNIT 1100 AT END OF TIME STEP   47, STRESS PERIOD    2


  VOLUME BUDGET FOR ENTIRE MODEL AT END OF TIME STEP   47, STRESS PERIOD   2
  ---------------------------------------------------------------------------------------------------

     CUMULATIVE VOLUME      L**3       RATES FOR THIS TIME STEP      L**3/T          PACKAGE NAME    
     ------------------                 ------------------------                     ----------------

           IN:                                      IN:
           ---                                      ---
              STO-SS =          21.2499                STO-SS =       1.3939E-02     STORAGE                          
              STO-SY =       53681.5341                STO-SY =          30.3496     STORAGE                          
                 WEL =           0.0000                   WEL =           0.0000     WEL-1                            
                 DRN =           0.0000                   DRN =           0.0000     DRN-0                            
                 API =       95038.4434                   API =         210.0971     MAR                              
                 CHD =       2.0279E-08                   CHD =           0.0000     CHD_0                            

            TOTAL IN =      148741.2275              TOTAL IN =         240.4607

          OUT:                                     OUT:
          ----                                     ----
              STO-SS =          17.5117                STO-SS =       1.4639E-02     STORAGE                          
              STO-SY =       34126.6813                STO-SY =          28.8601     STORAGE                          
                 WEL =      114597.0343                   WEL =         211.5859     WEL-1                            
                 DRN =       1.5461E-04                   DRN =       3.4021E-07     DRN-0                            
                 API =           0.0000                   API =           0.0000     MAR                              
                 CHD =       2.0705E-08                   CHD =           0.0000     CHD_0                            

           TOTAL OUT =      148741.2275             TOTAL OUT =         240.4607

            IN - OUT =      -1.2119E-06              IN - OUT =      -3.0188E-09

 PERCENT DISCREPANCY =          -0.00     PERCENT DISCREPANCY =          -0.00




         TIME SUMMARY AT END OF TIME STEP   47 IN STRESS PERIOD    2
                    SECONDS     MINUTES      HOURS       DAYS        YEARS
                    -----------------------------------------------------------
   TIME STEP LENGTH 8.64000E+05  14400.      240.00      10.000     2.73785E-02
 STRESS PERIOD TIME 4.06080E+07 6.76800E+05  11280.      470.00      1.2868    
         TOTAL TIME 4.06944E+07 6.78240E+05  11304.      471.00      1.2895    


end timestep


start timestep kper="2" kstp="48" mode="normal"

 UBDSV1 SAVING           STO-SS ON UNIT   1099 AT TIME STEP     48, STRESS PERIOD      2
 UBDSV1 SAVING           STO-SY ON UNIT   1099 AT TIME STEP     48, STRESS PERIOD      2
 UBDSV1 SAVING     FLOW-JA-FACE ON UNIT   1099 AT TIME STEP     48, STRESS PERIOD      2
 UBDSV06 SAVING       DATA-SPDIS IN MODEL GWF              PACKAGE NPF             CONNECTED TO MODEL GWF              PACKAGE NPF              ON UNIT   1099 AT TIME STEP     48, STRESS PERIOD      2
 UBDSV06 SAVING              WEL IN MODEL GWF              PACKAGE GWF             CONNECTED TO MODEL GWF              PACKAGE WEL-1            ON UNIT   1099 AT TIME STEP     48, STRESS PERIOD      2
 UBDSV06 SAVING              DRN IN MODEL GWF              PACKAGE GWF             CONNECTED TO MODEL GWF              PACKAGE DRN-0            ON UNIT   1099 AT TIME STEP     48, STRESS PERIOD      2
 UBDSV06 SAVING              API IN MODEL GWF              PACKAGE GWF             CONNECTED TO MODEL GWF              PACKAGE MAR              ON UNIT   1099 AT TIME STEP     48, STRESS PERIOD      2
 UBDSV06 SAVING              CHD IN MODEL GWF              PACKAGE GWF             CONNECTED TO MODEL GWF              PACKAGE CHD_0            ON UNIT   1099 AT TIME STEP     48, STRESS PERIOD      2

    CALCULATED INTERCELL FLOW FOR PERIOD 2 STEP 48
(1,1,1): (1,1,2) 2.020319E-02 (1,2,1) 2.329495E-02
(1,1,2): (1,1,1) -2.020319E-02 (1,1,3) 4.289260E-02 (1,2,2) 4.506622E-02
(1,1,3): (1,1,2) -4.289260E-02 (1,1,4) 6.191202E-02 (1,2,3) 9.439473E-02
(1,1,4): (1,1,3) -6.191202E-02 (1,1,5) 5.985974E-02 (1,2,4) 0.172116
(1,1,5): (1,1,4) -5.985974E-02 (1,1,6) 2.426391E-02 (1,2,5) 0.253709
(1,1,6): (1,1,5) -2.426391E-02 (1,1,7) -2.366250E-02 (1,2,6) 0.285108
(1,1,7): (1,1,6) 2.366250E-02 (1,1,8) -5.837241E-02 (1,2,7) 0.254213
(1,1,8): (1,1,7) 5.837241E-02 (1,1,9) -5.786231E-02 (1,2,8) 0.173924
(1,1,9): (1,1,8) 5.786231E-02 (1,1,10) -3.305908E-02 (1,2,9) 9.995734E-02
(1,1,10): (1,1,9) 3.305908E-02 (1,2,10) 6.037831E-02
(1,2,1): (1,1,1) -2.329495E-02 (1,2,2) 4.197378E-02 (1,3,1) 5.053360E-02
(1,2,2): (1,1,2) -4.506622E-02 (1,2,1) -4.197378E-02 (1,2,3) 9.222005E-02 (1,3,2) 0.101753
(1,2,3): (1,1,3) -9.439473E-02 (1,2,2) -9.222005E-02 (1,2,4) 0.139608 (1,3,3) 0.224130
(1,2,4): (1,1,4) -0.172116 (1,2,3) -0.139608 (1,2,5) 0.141363 (1,3,4) 0.433282
(1,2,5): (1,1,5) -0.253709 (1,2,4) -0.141363 (1,2,6) 5.559193E-02 (1,3,5) 0.674215
(1,2,6): (1,1,6) -0.285108 (1,2,5) -5.559193E-02 (1,2,7) -5.448720E-02 (1,3,6) 0.757992
(1,2,7): (1,1,7) -0.254213 (1,2,6) 5.448720E-02 (1,2,8) -0.138570 (1,3,7) 0.675267
(1,2,8): (1,1,8) -0.173924 (1,2,7) 0.138570 (1,2,9) -0.131798 (1,3,8) 0.437082
(1,2,9): (1,1,9) -9.995734E-02 (1,2,8) 0.131798 (1,2,10) -7.262734E-02 (1,3,9) 0.236021
(1,2,10): (1,1,10) -6.037831E-02 (1,2,9) 7.262734E-02 (1,3,10) 0.135415
(1,3,1): (1,2,1) -5.053360E-02 (1,3,2) 9.318923E-02 (1,4,1) 6.991793E-02
(1,3,2): (1,2,2) -0.101753 (1,3,1) -9.318923E-02 (1,3,3) 0.214585 (1,4,2) 0.150920
(1,3,3): (1,2,3) -0.224130 (1,3,2) -0.214585 (1,3,4) 0.348587 (1,4,3) 0.366301
(1,3,4): (1,2,4) -0.433282 (1,3,3) -0.348587 (1,3,5) 0.381611 (1,4,4) 0.802613
(1,3,5): (1,2,5) -0.674215 (1,3,4) -0.381611 (1,3,6) 0.138868 (1,4,5) 1.42397
(1,3,6): (1,2,6) -0.757992 (1,3,5) -0.138868 (1,3,7) -0.136717 (1,4,6) 1.58065
(1,3,7): (1,2,7) -0.675267 (1,3,6) 0.136717 (1,3,8) -0.376062 (1,4,7) 1.42535
(1,3,8): (1,2,8) -0.437082 (1,3,7) 0.376062 (1,3,9) -0.332653 (1,4,8) 0.807619
(1,3,9): (1,2,9) -0.236021 (1,3,8) 0.332653 (1,3,10) -0.173172 (1,4,9) 0.382327
(1,3,10): (1,2,10) -0.135415 (1,3,9) 0.173172 (1,4,10) 0.198337
(1,4,1): (1,3,1) -6.991793E-02 (1,4,2) 0.174210 (1,5,1) 4.169296E-02
(1,4,2): (1,3,2) -0.150920 (1,4,1) -0.174210 (1,4,3) 0.430100 (1,5,2) 0.106219
(1,4,3): (1,3,3) -0.366301 (1,4,2) -0.430100 (1,4,4) 0.784824 (1,5,3) 0.336839
(1,4,4): (1,3,4) -0.802613 (1,4,3) -0.784824 (1,4,5) 1.00049 (1,5,4) 1.04679
(1,4,5): (1,3,5) -1.42397 (1,4,4) -1.00049 (1,4,6) 0.293691 (1,5,5) 2.71113
(1,4,6): (1,3,6) -1.58065 (1,4,5) -0.293691 (1,4,7) -0.290167 (1,5,6) 2.79136
(1,4,7): (1,3,7) -1.42535 (1,4,6) 0.290167 (1,4,8) -0.991277 (1,5,7) 2.71195
(1,4,8): (1,3,8) -0.807619 (1,4,7) 0.991277 (1,4,9) -0.757740 (1,5,8) 1.04958
(1,4,9): (1,3,9) -0.382327 (1,4,8) 0.757740 (1,4,10) -0.357117 (1,5,9) 0.345838
(1,4,10): (1,3,10) -0.198337 (1,4,9) 0.357117 (1,5,10) 0.135072
(1,5,1): (1,4,1) -4.169296E-02 (1,5,2) 0.238821 (1,6,1) -7.697086E-02
(1,5,2): (1,4,2) -0.106219 (1,5,1) -0.238821 (1,5,3) 0.661450 (1,6,2) -0.168921
(1,5,3): (1,4,3) -0.336839 (1,5,2) -0.661450 (1,5,4) 1.49780 (1,6,3) -0.312158
(1,5,4): (1,4,4) -1.04679 (1,5,3) -1.49780 (1,5,5) 2.66413 (1,6,4) 0.133437
(1,5,5): (1,4,5) -2.71113 (1,5,4) -2.66413 (1,5,6) 0.372376 (1,6,5) 5.38936
(1,5,6): (1,4,6) -2.79136 (1,5,5) -0.372376 (1,5,7) -0.368039 (1,6,6) 3.97754
(1,5,7): (1,4,7) -2.71195 (1,5,6) 0.368039 (1,5,8) -2.65277 (1,6,7) 5.38825
(1,5,8): (1,4,8) -1.04958 (1,5,7) 2.65277 (1,5,9) -1.46423 (1,6,8) 0.128759
(1,5,9): (1,4,9) -0.345838 (1,5,8) 1.46423 (1,5,10) -0.568340 (1,6,9) -0.329109
(1,5,10): (1,4,10) -0.135072 (1,5,9) 0.568340 (1,6,10) -0.223730
(1,6,1): (1,5,1) 7.697086E-02 (1,6,2) 0.146807 (1,7,1) -0.222446
(1,6,2): (1,5,2) 0.168921 (1,6,1) -0.146807 (1,6,3) 0.517728 (1,7,2) -0.613591
(1,6,3): (1,5,3) 0.312158 (1,6,2) -0.517728 (1,6,4) 1.95021 (1,7,3) -1.96876
(1,6,4): (1,5,4) -0.133437 (1,6,3) -1.95021 (1,6,5) 8.03476 (1,7,4) -6.26645
(1,6,5): (1,5,5) -5.38936 (1,6,4) -8.03476 (1,6,6) -0.990554 (1,7,5) -20.5755
(1,6,6): (1,5,6) -3.97754 (1,6,5) 0.990554 (1,6,7) 0.993850 (1,7,6) -32.8688
(1,6,7): (1,5,7) -5.38825 (1,6,6) -0.993850 (1,6,8) -8.02675 (1,7,7) -20.5786
(1,6,8): (1,5,8) -0.128759 (1,6,7) 8.02675 (1,6,9) -1.92894 (1,7,8) -6.27846
(1,6,9): (1,5,9) 0.329109 (1,6,8) 1.92894 (1,6,10) -0.462717 (1,7,9) -2.01391
(1,6,10): (1,5,10) 0.223730 (1,6,9) 0.462717 (1,7,10) -0.776106
(1,7,1): (1,6,1) 0.222446 (1,7,2) -0.243115 (1,8,1) -0.142142
(1,7,2): (1,6,2) 0.613591 (1,7,1) 0.243115 (1,7,3) -0.824987 (1,8,2) -0.401983
(1,7,3): (1,6,3) 1.96876 (1,7,2) 0.824987 (1,7,4) -2.22371 (1,8,3) -1.35657
(1,7,4): (1,6,4) 6.26645 (1,7,3) 2.22371 (1,7,5) -5.11813 (1,8,4) -4.59923
(1,7,5): (1,6,5) 20.5755 (1,7,4) 5.11813 (1,7,6) -11.2501 (1,8,5) -15.6860
(1,7,6): (1,6,6) 32.8688 (1,7,5) 11.2501 (1,7,7) 11.2507 (1,8,6) -56.2906
(1,7,7): (1,6,7) 20.5786 (1,7,6) -11.2507 (1,7,8) 5.11693 (1,8,7) -15.6879
(1,7,8): (1,6,8) 6.27846 (1,7,7) -5.11693 (1,7,9) 2.21137 (1,8,8) -4.60681
(1,7,9): (1,6,9) 2.01391 (1,7,8) -2.21137 (1,7,10) 0.762107 (1,8,9) -1.38499
(1,7,10): (1,6,10) 0.776106 (1,7,9) -0.762107 (1,8,10) -0.505098
(1,8,1): (1,7,1) 0.142142 (1,8,2) -0.503220 (1,9,1) 0.118500
(1,8,2): (1,7,2) 0.401983 (1,8,1) 0.503220 (1,8,3) -1.78369 (1,9,2) 0.369511
(1,8,3): (1,7,3) 1.35657 (1,8,2) 1.78369 (1,8,4) -5.49611 (1,9,3) 1.31387
(1,8,4): (1,7,4) 4.59923 (1,8,3) 5.49611 (1,8,5) -16.2716 (1,9,4) 4.55837
(1,8,5): (1,7,5) 15.6860 (1,8,4) 16.2716 (1,8,6) -49.2259 (1,9,5) 15.6669
(1,8,6): (1,7,6) 56.2906 (1,8,5) 49.2259 (1,8,7) 49.2239 (1,9,6) 56.2786
(1,8,7): (1,7,7) 15.6879 (1,8,6) -49.2239 (1,8,8) 16.2636 (1,9,7) 15.6679
(1,8,8): (1,7,8) 4.60681 (1,8,7) -16.2636 (1,8,9) 5.46135 (1,9,8) 4.56334
(1,8,9): (1,7,9) 1.38499 (1,8,8) -5.46135 (1,8,10) 1.64431 (1,9,9) 1.33585
(1,8,10): (1,7,10) 0.505098 (1,8,9) -1.64431 (1,9,10) 0.459161
(1,9,1): (1,8,1) -0.118500 (1,9,2) -0.251872 (1,10,1) 0.207880
(1,9,2): (1,8,2) -0.369511 (1,9,1) 0.251872 (1,9,3) -0.834850 (1,10,2) 0.593171
(1,9,3): (1,8,3) -1.31387 (1,9,2) 0.834850 (1,9,4) -2.22048 (1,10,3) 1.94143
(1,9,4): (1,8,4) -4.55837 (1,9,3) 2.22048 (1,9,5) -5.09403 (1,10,4) 6.24335
(1,9,5): (1,8,5) -15.6669 (1,9,4) 5.09403 (1,9,6) -11.2391 (1,10,5) 20.5964
(1,9,6): (1,8,6) -56.2786 (1,9,5) 11.2391 (1,9,7) 11.2389 (1,10,6) 32.9011
(1,9,7): (1,8,7) -15.6679 (1,9,6) -11.2389 (1,9,8) 5.09103 (1,10,7) 20.5989
(1,9,8): (1,8,8) -4.56334 (1,9,7) -5.09103 (1,9,9) 2.20420 (1,10,8) 6.25371
(1,9,9): (1,8,9) -1.33585 (1,9,8) -2.20420 (1,9,10) 0.764880 (1,10,9) 1.98256
(1,9,10): (1,8,10) -0.459161 (1,9,9) -0.764880 (1,10,10) 0.747248
(1,10,1): (1,9,1) -0.207880 (1,10,2) 0.132289 (1,11,1) 7.460101E-02
(1,10,2): (1,9,2) -0.593171 (1,10,1) -0.132289 (1,10,3) 0.501329 (1,11,2) 0.163367
(1,10,3): (1,9,3) -1.94143 (1,10,2) -0.501329 (1,10,4) 1.95846 (1,11,3) 0.297396
(1,10,4): (1,9,4) -6.24335 (1,10,3) -1.95846 (1,10,5) 8.10144 (1,11,4) -0.170464
(1,10,5): (1,9,5) -20.5964 (1,10,4) -8.10144 (1,10,6) -0.973288 (1,11,5) -5.48285
(1,10,6): (1,9,6) -32.9011 (1,10,5) 0.973288 (1,10,7) 0.975223 (1,11,6) -4.08378
(1,10,7): (1,9,7) -20.5989 (1,10,6) -0.975223 (1,10,8) -8.09633 (1,11,7) -5.48179
(1,10,8): (1,9,8) -6.25371 (1,10,7) 8.09633 (1,10,9) -1.94352 (1,11,8) -0.166006
(1,10,9): (1,9,9) -1.98256 (1,10,8) 1.94352 (1,10,10) -0.457827 (1,11,9) 0.313751
(1,10,10): (1,9,10) -0.747248 (1,10,9) 0.457827 (1,11,10) 0.216466
(1,11,1): (1,10,1) -7.460101E-02 (1,11,2) 0.221106 (1,12,1) -3.393602E-02
(1,11,2): (1,10,2) -0.163367 (1,11,1) -0.221106 (1,11,3) 0.635799 (1,12,2) -9.688829E-02
(1,11,3): (1,10,3) -0.297396 (1,11,2) -0.635799 (1,11,4) 1.48344 (1,12,3) -0.328673
(1,11,4): (1,10,4) 0.170464 (1,11,3) -1.48344 (1,11,5) 2.67435 (1,12,4) -1.04995
(1,11,5): (1,10,5) 5.48285 (1,11,4) -2.67435 (1,11,6) 0.376149 (1,12,5) -2.73840
(1,11,6): (1,10,6) 4.08378 (1,11,5) -0.376149 (1,11,7) -0.373212 (1,12,6) -2.82750
(1,11,7): (1,10,7) 5.48179 (1,11,6) 0.373212 (1,11,8) -2.66595 (1,12,7) -2.73891
(1,11,8): (1,10,8) 0.166006 (1,11,7) 2.66595 (1,11,9) -1.45655 (1,12,8) -1.05183
(1,11,9): (1,10,9) -0.313751 (1,11,8) 1.45655 (1,11,10) -0.555339 (1,12,9) -0.335508
(1,11,10): (1,10,10) -0.216466 (1,11,9) 0.555339 (1,12,10) -0.121519
(1,12,1): (1,11,1) 3.393602E-02 (1,12,2) 0.158076 (1,13,1) -5.845359E-02
(1,12,2): (1,11,2) 9.688829E-02 (1,12,1) -0.158076 (1,12,3) 0.403318 (1,13,2) -0.134674
(1,12,3): (1,11,3) 0.328673 (1,12,2) -0.403318 (1,12,4) 0.759206 (1,13,3) -0.343480
(1,12,4): (1,11,4) 1.04995 (1,12,3) -0.759206 (1,12,5) 0.986865 (1,13,4) -0.776809
(1,12,5): (1,11,5) 2.73840 (1,12,4) -0.986865 (1,12,6) 0.288809 (1,13,5) -1.40134
(1,12,6): (1,11,6) 2.82750 (1,12,5) -0.288809 (1,12,7) -0.286373 (1,13,6) -1.55963
(1,12,7): (1,11,7) 2.73891 (1,12,6) 0.286373 (1,12,8) -0.979972 (1,13,7) -1.40231
(1,12,8): (1,11,8) 1.05183 (1,12,7) 0.979972 (1,12,9) -0.737483 (1,13,8) -0.780577
(1,12,9): (1,11,9) 0.335508 (1,12,8) 0.737483 (1,12,10) -0.340890 (1,13,9) -0.356400
(1,12,10): (1,11,10) 0.121519 (1,12,9) 0.340890 (1,13,10) -0.175475
(1,13,1): (1,12,1) 5.845359E-02 (1,13,2) 8.183823E-02 (1,14,1) -4.114458E-02
(1,13,2): (1,12,2) 0.134674 (1,13,1) -8.183823E-02 (1,13,3) 0.194390 (1,14,2) -8.766762E-02
(1,13,3): (1,12,3) 0.343480 (1,13,2) -0.194390 (1,13,4) 0.325950 (1,14,3) -0.202133
(1,13,4): (1,12,4) 0.776809 (1,13,3) -0.325950 (1,13,5) 0.364777 (1,14,4) -0.403364
(1,13,5): (1,12,5) 1.40134 (1,13,4) -0.364777 (1,13,6) 0.132375 (1,14,5) -0.639442
(1,13,6): (1,12,6) 1.55963 (1,13,5) -0.132375 (1,13,7) -0.130909 (1,14,6) -0.721469
(1,13,7): (1,12,7) 1.40231 (1,13,6) 0.130909 (1,13,8) -0.360709 (1,14,7) -0.640182
(1,13,8): (1,12,8) 0.780577 (1,13,7) 0.360709 (1,13,9) -0.313482 (1,14,8) -0.406191
(1,13,9): (1,12,9) 0.356400 (1,13,8) 0.313482 (1,13,10) -0.159992 (1,14,9) -0.211523
(1,13,10): (1,12,10) 0.175475 (1,13,9) 0.159992 (1,14,10) -0.115798
(1,14,1): (1,13,1) 4.114458E-02 (1,14,2) 3.531789E-02 (1,15,1) -1.843722E-02
(1,14,2): (1,13,2) 8.766762E-02 (1,14,1) -3.531789E-02 (1,14,3) 7.993323E-02 (1,15,2) -3.759305E-02
(1,14,3): (1,13,3) 0.202133 (1,14,2) -7.993323E-02 (1,14,4) 0.124871 (1,15,3) -8.224116E-02
(1,14,4): (1,13,4) 0.403364 (1,14,3) -0.124871 (1,14,5) 0.129331 (1,15,4) -0.154643
(1,14,5): (1,13,5) 0.639442 (1,14,4) -0.129331 (1,14,6) 5.081525E-02 (1,15,5) -0.232179
(1,14,6): (1,13,6) 0.721469 (1,14,5) -5.081525E-02 (1,14,7) -5.008581E-02 (1,15,6) -0.262005
(1,14,7): (1,13,7) 0.640182 (1,14,6) 5.008581E-02 (1,14,8) -0.127354 (1,15,7) -0.232528
(1,14,8): (1,13,8) 0.406191 (1,14,7) 0.127354 (1,14,9) -0.118992 (1,15,8) -0.155960
(1,14,9): (1,13,9) 0.211523 (1,14,8) 0.118992 (1,14,10) -6.431607E-02 (1,15,9) -8.652296E-02
(1,14,10): (1,13,10) 0.115798 (1,14,9) 6.431607E-02 (1,15,10) -5.002021E-02
(1,15,1): (1,14,1) 1.843722E-02 (1,15,2) 1.616249E-02
(1,15,2): (1,14,2) 3.759305E-02 (1,15,1) -1.616249E-02 (1,15,3) 3.528615E-02
(1,15,3): (1,14,3) 8.224116E-02 (1,15,2) -3.528615E-02 (1,15,4) 5.249068E-02
(1,15,4): (1,14,4) 0.154643 (1,15,3) -5.249068E-02 (1,15,5) 5.187342E-02
(1,15,5): (1,14,5) 0.232179 (1,15,4) -5.187342E-02 (1,15,6) 2.105137E-02
(1,15,6): (1,14,6) 0.262005 (1,15,5) -2.105137E-02 (1,15,7) -2.066998E-02
(1,15,7): (1,14,7) 0.232528 (1,15,6) 2.066998E-02 (1,15,8) -5.086603E-02
(1,15,8): (1,14,8) 0.155960 (1,15,7) 5.086603E-02 (1,15,9) -4.958048E-02
(1,15,9): (1,14,9) 8.652296E-02 (1,15,8) 4.958048E-02 (1,15,10) -2.782140E-02
(1,15,10): (1,14,10) 5.002021E-02 (1,15,9) 2.782140E-02

 WEL PACKAGE (WEL-1) FLOW RATES   PERIOD      2   STEP       48
 ----------------------------------------------------------------------------------------
   NUMBER   CELLID                    RATE       NAME                                    
 ----------------------------------------------------------------------------------------
     1      (1,8,6)              -211.24148      WEL                                     
 ----------------------------------------------------------------------------------------




 DRN PACKAGE (DRN-0) FLOW RATES   PERIOD      2   STEP       48
 ----------------------------------------------------------------------------------------
   NUMBER   CELLID                    RATE       NAME                                    
 ----------------------------------------------------------------------------------------
     1      (1,1,1)               0.0000000      SURF                                    
     2      (1,1,2)               0.0000000      SURF                                    
     3      (1,1,3)               0.0000000      SURF                                    
     4      (1,1,4)               0.0000000      SURF                                    
     5      (1,1,5)               0.0000000      SURF                                    
     6      (1,1,6)               0.0000000      SURF                                    
     7      (1,1,7)               0.0000000      SURF                                    
     8      (1,1,8)               0.0000000      SURF                                    
     9      (1,1,9)               0.0000000      SURF                                    
     10     (1,1,10)              0.0000000      SURF                                    
     11     (1,2,1)               0.0000000      SURF                                    
     12     (1,2,2)               0.0000000      SURF                                    
     13     (1,2,3)               0.0000000      SURF                                    
     14     (1,2,4)               0.0000000      SURF                                    
     15     (1,2,5)               0.0000000      SURF                                    
     16     (1,2,6)               0.0000000      SURF                                    
     17     (1,2,7)               0.0000000      SURF                                    
     18     (1,2,8)               0.0000000      SURF                                    
     19     (1,2,9)               0.0000000      SURF                                    
     20     (1,2,10)              0.0000000      SURF                                    
     21     (1,3,1)               0.0000000      SURF                                    
     22     (1,3,2)               0.0000000      SURF                                    
     23     (1,3,3)               0.0000000      SURF                                    
     24     (1,3,4)               0.0000000      SURF                                    
     25     (1,3,5)               0.0000000      SURF                                    
     26     (1,3,6)               0.0000000      SURF                                    
     27     (1,3,7)               0.0000000      SURF                                    
     28     (1,3,8)               0.0000000      SURF                                    
     29     (1,3,9)               0.0000000      SURF                                    
     30     (1,3,10)              0.0000000      SURF                                    
     31     (1,4,1)               0.0000000      SURF                                    
     32     (1,4,2)               0.0000000      SURF                                    
     33     (1,4,3)               0.0000000      SURF                                    
     34     (1,4,4)               0.0000000      SURF                                    
     35     (1,4,5)               0.0000000      SURF                                    
     36     (1,4,6)               0.0000000      SURF                                    
     37     (1,4,7)               0.0000000      SURF                                    
     38     (1,4,8)               0.0000000      SURF                                    
     39     (1,4,9)               0.0000000      SURF                                    
     40     (1,4,10)              0.0000000      SURF                                    
     41     (1,5,1)               0.0000000      SURF                                    
     42     (1,5,2)               0.0000000      SURF                                    
     43     (1,5,3)               0.0000000      SURF                                    
     44     (1,5,4)               0.0000000      SURF                                    
     45     (1,5,5)               0.0000000      SURF                                    
     46     (1,5,6)               0.0000000      SURF                                    
     47     (1,5,7)               0.0000000      SURF                                    
     48     (1,5,8)               0.0000000      SURF                                    
     49     (1,5,9)               0.0000000      SURF                                    
     50     (1,5,10)              0.0000000      SURF                                    
     51     (1,6,1)               0.0000000      SURF                                    
     52     (1,6,2)               0.0000000      SURF                                    
     53     (1,6,3)               0.0000000      SURF                                    
     54     (1,6,4)               0.0000000      SURF                                    
     55     (1,6,5)               0.0000000      SURF                                    
     56     (1,6,6)               0.0000000      SURF                                    
     57     (1,6,7)              -1.63418008E-08 SURF                                    
     58     (1,6,8)               0.0000000      SURF                                    
     59     (1,6,9)               0.0000000      SURF                                    
     60     (1,6,10)              0.0000000      SURF                                    
     61     (1,7,1)               0.0000000      SURF                                    
     62     (1,7,2)               0.0000000      SURF                                    
     63     (1,7,3)               0.0000000      SURF                                    
     64     (1,7,4)               0.0000000      SURF                                    
     65     (1,7,5)               0.0000000      SURF                                    
     66     (1,7,6)               0.0000000      SURF                                    
     67     (1,7,7)               0.0000000      SURF                                    
     68     (1,7,8)               0.0000000      SURF                                    
     69     (1,7,9)               0.0000000      SURF                                    
     70     (1,7,10)              0.0000000      SURF                                    
     71     (1,8,1)               0.0000000      SURF                                    
     72     (1,8,2)               0.0000000      SURF                                    
     73     (1,8,3)               0.0000000      SURF                                    
     74     (1,8,4)               0.0000000      SURF                                    
     75     (1,8,5)               0.0000000      SURF                                    
     76     (1,8,6)               0.0000000      SURF                                    
     77     (1,8,7)               0.0000000      SURF                                    
     78     (1,8,8)               0.0000000      SURF                                    
     79     (1,8,9)               0.0000000      SURF                                    
     80     (1,8,10)              0.0000000      SURF                                    
     81     (1,9,1)               0.0000000      SURF                                    
     82     (1,9,2)               0.0000000      SURF                                    
     83     (1,9,3)               0.0000000      SURF                                    
     84     (1,9,4)               0.0000000      SURF                                    
     85     (1,9,5)               0.0000000      SURF                                    
     86     (1,9,6)               0.0000000      SURF                                    
     87     (1,9,7)               0.0000000      SURF                                    
     88     (1,9,8)               0.0000000      SURF                                    
     89     (1,9,9)               0.0000000      SURF                                    
     90     (1,9,10)              0.0000000      SURF                                    
     91     (1,10,1)              0.0000000      SURF                                    
     92     (1,10,2)              0.0000000      SURF                                    
     93     (1,10,3)              0.0000000      SURF                                    
     94     (1,10,4)              0.0000000      SURF                                    
     95     (1,10,5)              0.0000000      SURF                                    
     96     (1,10,6)              0.0000000      SURF                                    
     97     (1,10,7)             -4.85961209E-07 SURF                                    
     98     (1,10,8)              0.0000000      SURF                                    
     99     (1,10,9)              0.0000000      SURF                                    
    100     (1,10,10)             0.0000000      SURF                                    
    101     (1,11,1)              0.0000000      SURF                                    
    102     (1,11,2)              0.0000000      SURF                                    
    103     (1,11,3)              0.0000000      SURF                                    
    104     (1,11,4)              0.0000000      SURF                                    
    105     (1,11,5)              0.0000000      SURF                                    
    106     (1,11,6)              0.0000000      SURF                                    
    107     (1,11,7)              0.0000000      SURF                                    
    108     (1,11,8)              0.0000000      SURF                                    
    109     (1,11,9)              0.0000000      SURF                                    
    110     (1,11,10)             0.0000000      SURF                                    
    111     (1,12,1)              0.0000000      SURF                                    
    112     (1,12,2)              0.0000000      SURF                                    
    113     (1,12,3)              0.0000000      SURF                                    
    114     (1,12,4)              0.0000000      SURF                                    
    115     (1,12,5)              0.0000000      SURF                                    
    116     (1,12,6)              0.0000000      SURF                                    
    117     (1,12,7)              0.0000000      SURF                                    
    118     (1,12,8)              0.0000000      SURF                                    
    119     (1,12,9)              0.0000000      SURF                                    
    120     (1,12,10)             0.0000000      SURF                                    
    121     (1,13,1)              0.0000000      SURF                                    
    122     (1,13,2)              0.0000000      SURF                                    
    123     (1,13,3)              0.0000000      SURF                                    
    124     (1,13,4)              0.0000000      SURF                                    
    125     (1,13,5)              0.0000000      SURF                                    
    126     (1,13,6)              0.0000000      SURF                                    
    127     (1,13,7)              0.0000000      SURF                                    
    128     (1,13,8)              0.0000000      SURF                                    
    129     (1,13,9)              0.0000000      SURF                                    
    130     (1,13,10)             0.0000000      SURF                                    
    131     (1,14,1)              0.0000000      SURF                                    
    132     (1,14,2)              0.0000000      SURF                                    
    133     (1,14,3)              0.0000000      SURF                                    
    134     (1,14,4)              0.0000000      SURF                                    
    135     (1,14,5)              0.0000000      SURF                                    
    136     (1,14,6)              0.0000000      SURF                                    
    137     (1,14,7)              0.0000000      SURF                                    
    138     (1,14,8)              0.0000000      SURF                                    
    139     (1,14,9)              0.0000000      SURF                                    
    140     (1,14,10)             0.0000000      SURF                                    
    141     (1,15,1)              0.0000000      SURF                                    
    142     (1,15,2)              0.0000000      SURF                                    
    143     (1,15,3)              0.0000000      SURF                                    
    144     (1,15,4)              0.0000000      SURF                                    
    145     (1,15,5)              0.0000000      SURF                                    
    146     (1,15,6)              0.0000000      SURF                                    
    147     (1,15,7)              0.0000000      SURF                                    
    148     (1,15,8)              0.0000000      SURF                                    
    149     (1,15,9)              0.0000000      SURF                                    
    150     (1,15,10)             0.0000000      SURF                                    
 ----------------------------------------------------------------------------------------




 API PACKAGE (MAR) FLOW RATES   PERIOD      2   STEP       48
 -----------------------------------------------
   NUMBER   CELLID                    RATE      
 -----------------------------------------------
     1      (1,6,5)               34.987496     
     2      (1,6,6)               34.987496     
     3      (1,6,7)               34.987496     
     4      (1,10,5)              35.152252     
     5      (1,10,6)              35.152252     
     6      (1,10,7)              35.152252     
 -----------------------------------------------



1
  HEAD IN LAYER   1 AT END OF TIME STEP  48 IN STRESS PERIOD    2
  ---------------------------------------------------------------------------

            1           2           3           4           5           6           7           8           9          10
 ........................................................................................................................
   1   2.5020E-03  4.5214E-03  8.8069E-03  1.4989E-02  2.0962E-02  2.3383E-02  2.1022E-02  1.5197E-02  9.4198E-03  6.1170E-03
   2   4.8304E-03  9.0240E-03  1.8229E-02  3.2145E-02  4.6216E-02  5.1747E-02  4.6326E-02  3.2533E-02  1.9396E-02  1.2148E-02
   3   9.8787E-03  1.9180E-02  4.0552E-02  7.5150E-02  0.1129      0.1266      0.1131      7.5912E-02  4.2898E-02  2.5654E-02
   4   1.6859E-02  3.4220E-02  7.6902E-02  0.1542      0.2518      0.2804      0.2521      0.1554      8.0824E-02  4.5398E-02
   5   2.1019E-02  4.4795E-02  0.1102      0.2563      0.5097      0.5451      0.5102      0.2578      0.1150      5.8827E-02
   6   1.3338E-02  2.7978E-02  7.9343E-02  0.2693      0.9997      0.9096       1.000      0.2703      8.2478E-02  3.6584E-02
   7  -8.8766E-03 -3.3210E-02 -0.1160     -0.3410     -0.8708      -2.103     -0.8708     -0.3410     -0.1173     -4.0743E-02
   8  -2.3103E-02 -7.3542E-02 -0.2532     -0.8171      -2.589      -9.231      -2.589     -0.8180     -0.2574     -9.1460E-02
   9  -1.1240E-02 -3.6456E-02 -0.1202     -0.3450     -0.8726      -2.104     -0.8726     -0.3453     -0.1222     -4.5335E-02
  10   9.5281E-03  2.2727E-02  7.2499E-02  0.2633      0.9998      0.9113       1.000      0.2640      7.4616E-02  2.9173E-02
  11   1.6976E-02  3.9000E-02  0.1019      0.2467      0.5014      0.5371      0.5017      0.2478      0.1057      5.0710E-02
  12   1.3588E-02  2.9349E-02  6.9403E-02  0.1442      0.2406      0.2687      0.2408      0.1452      7.2463E-02  3.8620E-02
  13   7.7502E-03  1.5921E-02  3.5292E-02  6.7668E-02  0.1038      0.1169      0.1039      6.8216E-02  3.7080E-02  2.1140E-02
  14   3.6390E-03  7.1682E-03  1.5149E-02  2.7602E-02  4.0483E-02  4.5542E-02  4.0556E-02  2.7872E-02  1.6006E-02  9.5843E-03
  15   1.7959E-03  3.4116E-03  6.9378E-03  1.2180E-02  1.7359E-02  1.9460E-02  1.7397E-02  1.2319E-02  7.3672E-03  4.5871E-03

 HEAD WILL BE SAVED ON UNIT 1100 AT END OF TIME STEP   48, STRESS PERIOD    2


  VOLUME BUDGET FOR ENTIRE MODEL AT END OF TIME STEP   48, STRESS PERIOD   2
  ---------------------------------------------------------------------------------------------------

     CUMULATIVE VOLUME      L**3       RATES FOR THIS TIME STEP      L**3/T          PACKAGE NAME    
     ------------------                 ------------------------                     ----------------

           IN:                                      IN:
           ---                                      ---
              STO-SS =          21.3846                STO-SS =       1.3468E-02     STORAGE                          
              STO-SY =       53974.3074                STO-SY =          29.2773     STORAGE                          
                 WEL =           0.0000                   WEL =           0.0000     WEL-1                            
                 DRN =           0.0000                   DRN =           0.0000     DRN-0                            
                 API =       97142.6358                   API =         210.4192     MAR                              
                 CHD =       2.0279E-08                   CHD =           0.0000     CHD_0                            

            TOTAL IN =      151138.3279              TOTAL IN =         239.7100

          OUT:                                     OUT:
          ----                                     ----
              STO-SS =          17.6561                STO-SS =       1.4432E-02     STORAGE                          
              STO-SY =       34411.2226                STO-SY =          28.4541     STORAGE                          
                 WEL =      116709.4490                   WEL =         211.2415     WEL-1                            
                 DRN =       1.5963E-04                   DRN =       5.0230E-07     DRN-0                            
                 API =           0.0000                   API =           0.0000     MAR                              
                 CHD =       2.0705E-08                   CHD =           0.0000     CHD_0                            

           TOTAL OUT =      151138.3279             TOTAL OUT =         239.7100

            IN - OUT =      -1.2451E-06              IN - OUT =      -3.3184E-09

 PERCENT DISCREPANCY =          -0.00     PERCENT DISCREPANCY =          -0.00




         TIME SUMMARY AT END OF TIME STEP   48 IN STRESS PERIOD    2
                    SECONDS     MINUTES      HOURS       DAYS        YEARS
                    -----------------------------------------------------------
   TIME STEP LENGTH 8.64000E+05  14400.      240.00      10.000     2.73785E-02
 STRESS PERIOD TIME 4.14720E+07 6.91200E+05  11520.      480.00      1.3142    
         TOTAL TIME 4.15584E+07 6.92640E+05  11544.      481.00      1.3169    


end timestep


start timestep kper="2" kstp="49" mode="normal"

 UBDSV1 SAVING           STO-SS ON UNIT   1099 AT TIME STEP     49, STRESS PERIOD      2
 UBDSV1 SAVING           STO-SY ON UNIT   1099 AT TIME STEP     49, STRESS PERIOD      2
 UBDSV1 SAVING     FLOW-JA-FACE ON UNIT   1099 AT TIME STEP     49, STRESS PERIOD      2
 UBDSV06 SAVING       DATA-SPDIS IN MODEL GWF              PACKAGE NPF             CONNECTED TO MODEL GWF              PACKAGE NPF              ON UNIT   1099 AT TIME STEP     49, STRESS PERIOD      2
 UBDSV06 SAVING              WEL IN MODEL GWF              PACKAGE GWF             CONNECTED TO MODEL GWF              PACKAGE WEL-1            ON UNIT   1099 AT TIME STEP     49, STRESS PERIOD      2
 UBDSV06 SAVING              DRN IN MODEL GWF              PACKAGE GWF             CONNECTED TO MODEL GWF              PACKAGE DRN-0            ON UNIT   1099 AT TIME STEP     49, STRESS PERIOD      2
 UBDSV06 SAVING              API IN MODEL GWF              PACKAGE GWF             CONNECTED TO MODEL GWF              PACKAGE MAR              ON UNIT   1099 AT TIME STEP     49, STRESS PERIOD      2
 UBDSV06 SAVING              CHD IN MODEL GWF              PACKAGE GWF             CONNECTED TO MODEL GWF              PACKAGE CHD_0            ON UNIT   1099 AT TIME STEP     49, STRESS PERIOD      2

    CALCULATED INTERCELL FLOW FOR PERIOD 2 STEP 49
(1,1,1): (1,1,2) 2.144150E-02 (1,2,1) 2.459189E-02
(1,1,2): (1,1,1) -2.144150E-02 (1,1,3) 4.521152E-02 (1,2,2) 4.701574E-02
(1,1,3): (1,1,2) -4.521152E-02 (1,1,4) 6.477437E-02 (1,2,3) 9.753078E-02
(1,1,4): (1,1,3) -6.477437E-02 (1,1,5) 6.228025E-02 (1,2,4) 0.176665
(1,1,5): (1,1,4) -6.228025E-02 (1,1,6) 2.522504E-02 (1,2,5) 0.259422
(1,1,6): (1,1,5) -2.522504E-02 (1,1,7) -2.454747E-02 (1,2,6) 0.291266
(1,1,7): (1,1,6) 2.454747E-02 (1,1,8) -6.063269E-02 (1,2,7) 0.259971
(1,1,8): (1,1,7) 6.063269E-02 (1,1,9) -6.035654E-02 (1,2,8) 0.178611
(1,1,9): (1,1,8) 6.035654E-02 (1,1,10) -3.463426E-02 (1,2,9) 0.103439
(1,1,10): (1,1,9) 3.463426E-02 (1,2,10) 6.308154E-02
(1,2,1): (1,1,1) -2.459189E-02 (1,2,2) 4.386465E-02 (1,3,1) 5.268224E-02
(1,2,2): (1,1,2) -4.701574E-02 (1,2,1) -4.386465E-02 (1,2,3) 9.572565E-02 (1,3,2) 0.104864
(1,2,3): (1,1,3) -9.753078E-02 (1,2,2) -9.572565E-02 (1,2,4) 0.143883 (1,3,3) 0.228931
(1,2,4): (1,1,4) -0.176665 (1,2,3) -0.143883 (1,2,5) 0.144943 (1,3,4) 0.440055
(1,2,5): (1,1,5) -0.259422 (1,2,4) -0.144943 (1,2,6) 5.699580E-02 (1,3,5) 0.682659
(1,2,6): (1,1,6) -0.291266 (1,2,5) -5.699580E-02 (1,2,7) -5.577019E-02 (1,3,6) 0.767064
(1,2,7): (1,1,7) -0.259971 (1,2,6) 5.577019E-02 (1,2,8) -0.141897 (1,3,7) 0.683790
(1,2,8): (1,1,8) -0.178611 (1,2,7) 0.141897 (1,2,9) -0.135497 (1,3,8) 0.444092
(1,2,9): (1,1,9) -0.103439 (1,2,8) 0.135497 (1,2,10) -7.497988E-02 (1,3,9) 0.241403
(1,2,10): (1,1,10) -6.308154E-02 (1,2,9) 7.497988E-02 (1,3,10) 0.139748
(1,3,1): (1,2,1) -5.268224E-02 (1,3,2) 9.604172E-02 (1,4,1) 7.148711E-02
(1,3,2): (1,2,2) -0.104864 (1,3,1) -9.604172E-02 (1,3,3) 0.219781 (1,4,2) 0.152776
(1,3,3): (1,2,3) -0.228931 (1,3,2) -0.219781 (1,3,4) 0.354831 (1,4,3) 0.368499
(1,3,4): (1,2,4) -0.440055 (1,3,3) -0.354831 (1,3,5) 0.386851 (1,4,4) 0.805277
(1,3,5): (1,2,5) -0.682659 (1,3,4) -0.386851 (1,3,6) 0.140891 (1,4,5) 1.42765
(1,3,6): (1,2,6) -0.767064 (1,3,5) -0.140891 (1,3,7) -0.138540 (1,4,6) 1.58477
(1,3,7): (1,2,7) -0.683790 (1,3,6) 0.138540 (1,3,8) -0.380890 (1,4,7) 1.42911
(1,3,8): (1,2,8) -0.444092 (1,3,7) 0.380890 (1,3,9) -0.337975 (1,4,8) 0.810490
(1,3,9): (1,2,9) -0.241403 (1,3,8) 0.337975 (1,3,10) -0.176570 (1,4,9) 0.384976
(1,3,10): (1,2,10) -0.139748 (1,3,9) 0.176570 (1,4,10) 0.200988
(1,4,1): (1,3,1) -7.148711E-02 (1,4,2) 0.177350 (1,5,1) 4.022582E-02
(1,4,2): (1,3,2) -0.152776 (1,4,1) -0.177350 (1,4,3) 0.435647 (1,5,2) 0.102816
(1,4,3): (1,3,3) -0.368499 (1,4,2) -0.435647 (1,4,4) 0.791550 (1,5,3) 0.329720
(1,4,4): (1,3,4) -0.805277 (1,4,3) -0.791550 (1,4,5) 1.00677 (1,5,4) 1.03631
(1,4,5): (1,3,5) -1.42765 (1,4,4) -1.00677 (1,4,6) 0.296145 (1,5,5) 2.70153
(1,4,6): (1,3,6) -1.58477 (1,4,5) -0.296145 (1,4,7) -0.292346 (1,5,6) 2.78258
(1,4,7): (1,3,7) -1.42911 (1,4,6) 0.292346 (1,4,8) -0.997001 (1,5,7) 2.70235
(1,4,8): (1,3,8) -0.810490 (1,4,7) 0.997001 (1,4,9) -0.763295 (1,5,8) 1.03903
(1,4,9): (1,3,9) -0.384976 (1,4,8) 0.763295 (1,4,10) -0.360514 (1,5,9) 0.338405
(1,4,10): (1,3,10) -0.200988 (1,4,9) 0.360514 (1,5,10) 0.130532
(1,5,1): (1,4,1) -4.022582E-02 (1,5,2) 0.240026 (1,6,1) -8.305365E-02
(1,5,2): (1,4,2) -0.102816 (1,5,1) -0.240026 (1,5,3) 0.663289 (1,6,2) -0.180040
(1,5,3): (1,4,3) -0.329720 (1,5,2) -0.663289 (1,5,4) 1.50124 (1,6,3) -0.332574
(1,5,4): (1,4,4) -1.03631 (1,5,3) -1.50124 (1,5,5) 2.67154 (1,6,4) 0.105266
(1,5,5): (1,4,5) -2.70153 (1,5,4) -2.67154 (1,5,6) 0.375640 (1,6,5) 5.36880
(1,5,6): (1,4,6) -2.78258 (1,5,5) -0.375640 (1,5,7) -0.371030 (1,6,6) 3.96110
(1,5,7): (1,4,7) -2.70235 (1,5,6) 0.371030 (1,5,8) -2.65969 (1,6,7) 5.36755
(1,5,8): (1,4,8) -1.03903 (1,5,7) 2.65969 (1,5,9) -1.46675 (1,6,8) 0.100110
(1,5,9): (1,4,9) -0.338405 (1,5,8) 1.46675 (1,5,10) -0.568853 (1,6,9) -0.351003
(1,5,10): (1,4,10) -0.130532 (1,5,9) 0.568853 (1,6,10) -0.238838
(1,6,1): (1,5,1) 8.305365E-02 (1,6,2) 0.142982 (1,7,1) -0.230655
(1,6,2): (1,5,2) 0.180040 (1,6,1) -0.142982 (1,6,3) 0.510265 (1,7,2) -0.628154
(1,6,3): (1,5,3) 0.332574 (1,6,2) -0.510265 (1,6,4) 1.94573 (1,7,3) -1.99587
(1,6,4): (1,5,4) -0.105266 (1,6,3) -1.94573 (1,6,5) 8.05162 (1,7,4) -6.30998
(1,6,5): (1,5,5) -5.36880 (1,6,4) -8.05162 (1,6,6) -0.983487 (1,7,5) -20.6394
(1,6,6): (1,5,6) -3.96110 (1,6,5) 0.983487 (1,6,7) 0.986926 (1,7,6) -32.9241
(1,6,7): (1,5,7) -5.36755 (1,6,6) -0.986926 (1,6,8) -8.04346 (1,7,7) -20.6428
(1,6,8): (1,5,8) -0.100110 (1,6,7) 8.04346 (1,6,9) -1.92456 (1,7,8) -6.32267
(1,6,9): (1,5,9) 0.351003 (1,6,8) 1.92456 (1,6,10) -0.456452 (1,7,9) -2.04302
(1,6,10): (1,5,10) 0.238838 (1,6,9) 0.456452 (1,7,10) -0.795881
(1,7,1): (1,6,1) 0.230655 (1,7,2) -0.253243 (1,8,1) -0.146069
(1,7,2): (1,6,2) 0.628154 (1,7,1) 0.253243 (1,7,3) -0.844681 (1,8,2) -0.408636
(1,7,3): (1,6,3) 1.99587 (1,7,2) 0.844681 (1,7,4) -2.24287 (1,8,3) -1.36815
(1,7,4): (1,6,4) 6.30998 (1,7,3) 2.24287 (1,7,5) -5.11455 (1,8,4) -4.61434
(1,7,5): (1,6,5) 20.6394 (1,7,4) 5.11455 (1,7,6) -11.2286 (1,8,5) -15.6915
(1,7,6): (1,6,6) 32.9241 (1,7,5) 11.2286 (1,7,7) 11.2292 (1,8,6) -56.2347
(1,7,7): (1,6,7) 20.6428 (1,7,6) -11.2292 (1,7,8) 5.11300 (1,8,7) -15.6935
(1,7,8): (1,6,8) 6.32267 (1,7,7) -5.11300 (1,7,9) 2.22910 (1,8,8) -4.62227
(1,7,9): (1,6,9) 2.04302 (1,7,8) -2.22910 (1,7,10) 0.777373 (1,8,9) -1.39754
(1,7,10): (1,6,10) 0.795881 (1,7,9) -0.777373 (1,8,10) -0.514149
(1,8,1): (1,7,1) 0.146069 (1,8,2) -0.516093 (1,9,1) 0.122462
(1,8,2): (1,7,2) 0.408636 (1,8,1) 0.516093 (1,8,3) -1.80846 (1,9,2) 0.376709
(1,8,3): (1,7,3) 1.36815 (1,8,2) 1.80846 (1,8,4) -5.51913 (1,9,3) 1.32682
(1,8,4): (1,7,4) 4.61434 (1,8,3) 5.51913 (1,8,5) -16.2561 (1,9,4) 4.57533
(1,8,5): (1,7,5) 15.6915 (1,8,4) 16.2561 (1,8,6) -49.1278 (1,9,5) 15.6738
(1,8,6): (1,7,6) 56.2347 (1,8,5) 49.1278 (1,8,7) 49.1256 (1,9,6) 56.2242
(1,8,7): (1,7,7) 15.6935 (1,8,6) -49.1256 (1,8,8) 16.2474 (1,9,7) 15.6749
(1,8,8): (1,7,8) 4.62227 (1,8,7) -16.2474 (1,8,9) 5.48222 (1,9,8) 4.58059
(1,8,9): (1,7,9) 1.39754 (1,8,8) -5.48222 (1,8,10) 1.66314 (1,9,9) 1.34974
(1,8,10): (1,7,10) 0.514149 (1,8,9) -1.66314 (1,9,10) 0.468934
(1,9,1): (1,8,1) -0.122462 (1,9,2) -0.261490 (1,10,1) 0.215965
(1,9,2): (1,8,2) -0.376709 (1,9,1) 0.261490 (1,9,3) -0.853727 (1,10,2) 0.607841
(1,9,3): (1,8,3) -1.32682 (1,9,2) 0.853727 (1,9,4) -2.23922 (1,10,3) 1.96899
(1,9,4): (1,8,4) -4.57533 (1,9,3) 2.23922 (1,9,5) -5.09111 (1,10,4) 6.28729
(1,9,5): (1,8,5) -15.6738 (1,9,4) 5.09111 (1,9,6) -11.2181 (1,10,5) 20.6590
(1,9,6): (1,8,6) -56.2242 (1,9,5) 11.2181 (1,9,7) 11.2177 (1,10,6) 32.9547
(1,9,7): (1,8,7) -15.6749 (1,9,6) -11.2177 (1,9,8) 5.08774 (1,10,7) 20.6618
(1,9,8): (1,8,8) -4.58059 (1,9,7) -5.08774 (1,9,9) 2.22153 (1,10,8) 6.29829
(1,9,9): (1,8,9) -1.34974 (1,9,8) -2.22153 (1,9,10) 0.779534 (1,10,9) 2.01208
(1,9,10): (1,8,10) -0.468934 (1,9,9) -0.779534 (1,10,10) 0.767151
(1,10,1): (1,9,1) -0.215965 (1,10,2) 0.129205 (1,11,1) 8.042330E-02
(1,10,2): (1,9,2) -0.607841 (1,10,1) -0.129205 (1,10,3) 0.495031 (1,11,2) 0.174194
(1,10,3): (1,9,3) -1.96899 (1,10,2) -0.495031 (1,10,4) 1.95434 (1,11,3) 0.317673
(1,10,4): (1,9,4) -6.28729 (1,10,3) -1.95434 (1,10,5) 8.11603 (1,11,4) -0.141605
(1,10,5): (1,9,5) -20.6590 (1,10,4) -8.11603 (1,10,6) -0.966782 (1,11,5) -5.45923
(1,10,6): (1,9,6) -32.9547 (1,10,5) 0.966782 (1,10,7) 0.968809 (1,11,6) -4.06367
(1,10,7): (1,9,7) -20.6618 (1,10,6) -0.968809 (1,10,8) -8.11082 (1,11,7) -5.45804
(1,10,8): (1,9,8) -6.29829 (1,10,7) 8.11082 (1,10,9) -1.93947 (1,11,8) -0.136702
(1,10,9): (1,9,9) -2.01208 (1,10,8) 1.93947 (1,10,10) -0.452445 (1,11,9) 0.335430
(1,10,10): (1,9,10) -0.767151 (1,10,9) 0.452445 (1,11,10) 0.231140
(1,11,1): (1,10,1) -8.042330E-02 (1,11,2) 0.223022 (1,12,1) -3.271642E-02
(1,11,2): (1,10,2) -0.174194 (1,11,1) -0.223022 (1,11,3) 0.638958 (1,12,2) -9.400812E-02
(1,11,3): (1,10,3) -0.317673 (1,11,2) -0.638958 (1,11,4) 1.48806 (1,12,3) -0.322438
(1,11,4): (1,10,4) 0.141605 (1,11,3) -1.48806 (1,11,5) 2.68186 (1,12,4) -1.04031
(1,11,5): (1,10,5) 5.45923 (1,11,4) -2.68186 (1,11,6) 0.379471 (1,12,5) -2.72889
(1,11,6): (1,10,6) 4.06367 (1,11,5) -0.379471 (1,11,7) -0.376323 (1,12,6) -2.81852
(1,11,7): (1,10,7) 5.45804 (1,11,6) 0.376323 (1,11,8) -2.67303 (1,12,7) -2.72939
(1,11,8): (1,10,8) 0.136702 (1,11,7) 2.67303 (1,11,9) -1.46027 (1,12,8) -1.04215
(1,11,9): (1,10,9) -0.335430 (1,11,8) 1.46027 (1,11,10) -0.556958 (1,12,9) -0.329016
(1,11,10): (1,10,10) -0.231140 (1,11,9) 0.556958 (1,12,10) -0.117706
(1,12,1): (1,11,1) 3.271642E-02 (1,12,2) 0.161651 (1,13,1) -6.008736E-02
(1,12,2): (1,11,2) 9.400812E-02 (1,12,1) -0.161651 (1,12,3) 0.409821 (1,13,2) -0.136898
(1,12,3): (1,11,3) 0.322438 (1,12,2) -0.409821 (1,12,4) 0.767147 (1,13,3) -0.346610
(1,12,4): (1,11,4) 1.04031 (1,12,3) -0.767147 (1,12,5) 0.993999 (1,13,4) -0.780978
(1,12,5): (1,11,5) 2.72889 (1,12,4) -0.993999 (1,12,6) 0.291605 (1,13,5) -1.40679
(1,12,6): (1,11,6) 2.81852 (1,12,5) -0.291605 (1,12,7) -0.288954 (1,13,6) -1.56561
(1,12,7): (1,11,7) 2.72939 (1,12,6) 0.288954 (1,12,8) -0.986636 (1,13,7) -1.40783
(1,12,8): (1,11,8) 1.04215 (1,12,7) 0.986636 (1,12,9) -0.744325 (1,13,8) -0.784931
(1,12,9): (1,11,9) 0.329016 (1,12,8) 0.744325 (1,12,10) -0.345177 (1,13,9) -0.359981
(1,12,10): (1,11,10) 0.117706 (1,12,9) 0.345177 (1,13,10) -0.178612
(1,13,1): (1,12,1) 6.008736E-02 (1,13,2) 8.482245E-02 (1,14,1) -4.319631E-02
(1,13,2): (1,12,2) 0.136898 (1,13,1) -8.482245E-02 (1,13,3) 0.199978 (1,14,2) -9.085598E-02
(1,13,3): (1,12,3) 0.346610 (1,13,2) -0.199978 (1,13,4) 0.332838 (1,14,3) -0.207393
(1,13,4): (1,12,4) 0.780978 (1,13,3) -0.332838 (1,13,5) 0.370623 (1,14,4) -0.411108
(1,13,5): (1,12,5) 1.40679 (1,13,4) -0.370623 (1,13,6) 0.134651 (1,14,5) -0.649278
(1,13,6): (1,12,6) 1.56561 (1,13,5) -0.134651 (1,13,7) -0.133032 (1,14,6) -0.732104
(1,13,7): (1,12,7) 1.40783 (1,13,6) 0.133032 (1,13,8) -0.366212 (1,14,7) -0.650083
(1,13,8): (1,12,8) 0.784931 (1,13,7) 0.366212 (1,13,9) -0.319541 (1,14,8) -0.414139
(1,13,9): (1,12,9) 0.359981 (1,13,8) 0.319541 (1,13,10) -0.163835 (1,14,9) -0.217323
(1,13,10): (1,12,10) 0.178612 (1,13,9) 0.163835 (1,14,10) -0.120213
(1,14,1): (1,13,1) 4.319631E-02 (1,14,2) 3.716564E-02 (1,15,1) -1.962797E-02
(1,14,2): (1,13,2) 9.085598E-02 (1,14,1) -3.716564E-02 (1,14,3) 8.344897E-02 (1,15,2) -3.949445E-02
(1,14,3): (1,13,3) 0.207393 (1,14,2) -8.344897E-02 (1,14,4) 0.129280 (1,15,3) -8.547568E-02
(1,14,4): (1,13,4) 0.411108 (1,14,3) -0.129280 (1,14,5) 0.133098 (1,15,4) -0.159519
(1,14,5): (1,13,5) 0.649278 (1,14,4) -0.133098 (1,14,6) 5.230401E-02 (1,15,5) -0.238434
(1,14,6): (1,13,6) 0.732104 (1,14,5) -5.230401E-02 (1,14,7) -5.148510E-02 (1,15,6) -0.268796
(1,14,7): (1,13,7) 0.650083 (1,14,6) 5.148510E-02 (1,14,8) -0.130920 (1,15,7) -0.238818
(1,14,8): (1,13,8) 0.414139 (1,14,7) 0.130920 (1,14,9) -0.122908 (1,15,8) -0.160951
(1,14,9): (1,13,9) 0.217323 (1,14,8) 0.122908 (1,14,10) -6.677684E-02 (1,15,9) -9.006662E-02
(1,14,10): (1,13,10) 0.120213 (1,14,9) 6.677684E-02 (1,15,10) -5.264216E-02
(1,15,1): (1,14,1) 1.962797E-02 (1,15,2) 1.729962E-02
(1,15,2): (1,14,2) 3.949445E-02 (1,15,1) -1.729962E-02 (1,15,3) 3.746867E-02
(1,15,3): (1,14,3) 8.547568E-02 (1,15,2) -3.746867E-02 (1,15,4) 5.525986E-02
(1,15,4): (1,14,4) 0.159519 (1,15,3) -5.525986E-02 (1,15,5) 5.426461E-02
(1,15,5): (1,14,5) 0.238434 (1,15,4) -5.426461E-02 (1,15,6) 2.200722E-02
(1,15,6): (1,14,6) 0.268796 (1,15,5) -2.200722E-02 (1,15,7) -2.157180E-02
(1,15,7): (1,14,7) 0.238818 (1,15,6) 2.157180E-02 (1,15,8) -5.313529E-02
(1,15,8): (1,14,8) 0.160951 (1,15,7) 5.313529E-02 (1,15,9) -5.205045E-02
(1,15,9): (1,14,9) 9.006662E-02 (1,15,8) 5.205045E-02 (1,15,10) -2.936105E-02
(1,15,10): (1,14,10) 5.264216E-02 (1,15,9) 2.936105E-02

 WEL PACKAGE (WEL-1) FLOW RATES   PERIOD      2   STEP       49
 ----------------------------------------------------------------------------------------
   NUMBER   CELLID                    RATE       NAME                                    
 ----------------------------------------------------------------------------------------
     1      (1,8,6)              -210.91978      WEL                                     
 ----------------------------------------------------------------------------------------




 DRN PACKAGE (DRN-0) FLOW RATES   PERIOD      2   STEP       49
 ----------------------------------------------------------------------------------------
   NUMBER   CELLID                    RATE       NAME                                    
 ----------------------------------------------------------------------------------------
     1      (1,1,1)               0.0000000      SURF                                    
     2      (1,1,2)               0.0000000      SURF                                    
     3      (1,1,3)               0.0000000      SURF                                    
     4      (1,1,4)               0.0000000      SURF                                    
     5      (1,1,5)               0.0000000      SURF                                    
     6      (1,1,6)               0.0000000      SURF                                    
     7      (1,1,7)               0.0000000      SURF                                    
     8      (1,1,8)               0.0000000      SURF                                    
     9      (1,1,9)               0.0000000      SURF                                    
     10     (1,1,10)              0.0000000      SURF                                    
     11     (1,2,1)               0.0000000      SURF                                    
     12     (1,2,2)               0.0000000      SURF                                    
     13     (1,2,3)               0.0000000      SURF                                    
     14     (1,2,4)               0.0000000      SURF                                    
     15     (1,2,5)               0.0000000      SURF                                    
     16     (1,2,6)               0.0000000      SURF                                    
     17     (1,2,7)               0.0000000      SURF                                    
     18     (1,2,8)               0.0000000      SURF                                    
     19     (1,2,9)               0.0000000      SURF                                    
     20     (1,2,10)              0.0000000      SURF                                    
     21     (1,3,1)               0.0000000      SURF                                    
     22     (1,3,2)               0.0000000      SURF                                    
     23     (1,3,3)               0.0000000      SURF                                    
     24     (1,3,4)               0.0000000      SURF                                    
     25     (1,3,5)               0.0000000      SURF                                    
     26     (1,3,6)               0.0000000      SURF                                    
     27     (1,3,7)               0.0000000      SURF                                    
     28     (1,3,8)               0.0000000      SURF                                    
     29     (1,3,9)               0.0000000      SURF                                    
     30     (1,3,10)              0.0000000      SURF                                    
     31     (1,4,1)               0.0000000      SURF                                    
     32     (1,4,2)               0.0000000      SURF                                    
     33     (1,4,3)               0.0000000      SURF                                    
     34     (1,4,4)               0.0000000      SURF                                    
     35     (1,4,5)               0.0000000      SURF                                    
     36     (1,4,6)               0.0000000      SURF                                    
     37     (1,4,7)               0.0000000      SURF                                    
     38     (1,4,8)               0.0000000      SURF                                    
     39     (1,4,9)               0.0000000      SURF                                    
     40     (1,4,10)              0.0000000      SURF                                    
     41     (1,5,1)               0.0000000      SURF                                    
     42     (1,5,2)               0.0000000      SURF                                    
     43     (1,5,3)               0.0000000      SURF                                    
     44     (1,5,4)               0.0000000      SURF                                    
     45     (1,5,5)               0.0000000      SURF                                    
     46     (1,5,6)               0.0000000      SURF                                    
     47     (1,5,7)               0.0000000      SURF                                    
     48     (1,5,8)               0.0000000      SURF                                    
     49     (1,5,9)               0.0000000      SURF                                    
     50     (1,5,10)              0.0000000      SURF                                    
     51     (1,6,1)               0.0000000      SURF                                    
     52     (1,6,2)               0.0000000      SURF                                    
     53     (1,6,3)               0.0000000      SURF                                    
     54     (1,6,4)               0.0000000      SURF                                    
     55     (1,6,5)               0.0000000      SURF                                    
     56     (1,6,6)               0.0000000      SURF                                    
     57     (1,6,7)              -1.82044460E-08 SURF                                    
     58     (1,6,8)               0.0000000      SURF                                    
     59     (1,6,9)               0.0000000      SURF                                    
     60     (1,6,10)              0.0000000      SURF                                    
     61     (1,7,1)               0.0000000      SURF                                    
     62     (1,7,2)               0.0000000      SURF                                    
     63     (1,7,3)               0.0000000      SURF                                    
     64     (1,7,4)               0.0000000      SURF                                    
     65     (1,7,5)               0.0000000      SURF                                    
     66     (1,7,6)               0.0000000      SURF                                    
     67     (1,7,7)               0.0000000      SURF                                    
     68     (1,7,8)               0.0000000      SURF                                    
     69     (1,7,9)               0.0000000      SURF                                    
     70     (1,7,10)              0.0000000      SURF                                    
     71     (1,8,1)               0.0000000      SURF                                    
     72     (1,8,2)               0.0000000      SURF                                    
     73     (1,8,3)               0.0000000      SURF                                    
     74     (1,8,4)               0.0000000      SURF                                    
     75     (1,8,5)               0.0000000      SURF                                    
     76     (1,8,6)               0.0000000      SURF                                    
     77     (1,8,7)               0.0000000      SURF                                    
     78     (1,8,8)               0.0000000      SURF                                    
     79     (1,8,9)               0.0000000      SURF                                    
     80     (1,8,10)              0.0000000      SURF                                    
     81     (1,9,1)               0.0000000      SURF                                    
     82     (1,9,2)               0.0000000      SURF                                    
     83     (1,9,3)               0.0000000      SURF                                    
     84     (1,9,4)               0.0000000      SURF                                    
     85     (1,9,5)               0.0000000      SURF                                    
     86     (1,9,6)               0.0000000      SURF                                    
     87     (1,9,7)               0.0000000      SURF                                    
     88     (1,9,8)               0.0000000      SURF                                    
     89     (1,9,9)               0.0000000      SURF                                    
     90     (1,9,10)              0.0000000      SURF                                    
     91     (1,10,1)              0.0000000      SURF                                    
     92     (1,10,2)              0.0000000      SURF                                    
     93     (1,10,3)              0.0000000      SURF                                    
     94     (1,10,4)              0.0000000      SURF                                    
     95     (1,10,5)              0.0000000      SURF                                    
     96     (1,10,6)              0.0000000      SURF                                    
     97     (1,10,7)             -4.47937055E-07 SURF                                    
     98     (1,10,8)              0.0000000      SURF                                    
     99     (1,10,9)              0.0000000      SURF                                    
    100     (1,10,10)             0.0000000      SURF                                    
    101     (1,11,1)              0.0000000      SURF                                    
    102     (1,11,2)              0.0000000      SURF                                    
    103     (1,11,3)              0.0000000      SURF                                    
    104     (1,11,4)              0.0000000      SURF                                    
    105     (1,11,5)              0.0000000      SURF                                    
    106     (1,11,6)              0.0000000      SURF                                    
    107     (1,11,7)              0.0000000      SURF                                    
    108     (1,11,8)              0.0000000      SURF                                    
    109     (1,11,9)              0.0000000      SURF                                    
    110     (1,11,10)             0.0000000      SURF                                    
    111     (1,12,1)              0.0000000      SURF                                    
    112     (1,12,2)              0.0000000      SURF                                    
    113     (1,12,3)              0.0000000      SURF                                    
    114     (1,12,4)              0.0000000      SURF                                    
    115     (1,12,5)              0.0000000      SURF                                    
    116     (1,12,6)              0.0000000      SURF                                    
    117     (1,12,7)              0.0000000      SURF                                    
    118     (1,12,8)              0.0000000      SURF                                    
    119     (1,12,9)              0.0000000      SURF                                    
    120     (1,12,10)             0.0000000      SURF                                    
    121     (1,13,1)              0.0000000      SURF                                    
    122     (1,13,2)              0.0000000      SURF                                    
    123     (1,13,3)              0.0000000      SURF                                    
    124     (1,13,4)              0.0000000      SURF                                    
    125     (1,13,5)              0.0000000      SURF                                    
    126     (1,13,6)              0.0000000      SURF                                    
    127     (1,13,7)              0.0000000      SURF                                    
    128     (1,13,8)              0.0000000      SURF                                    
    129     (1,13,9)              0.0000000      SURF                                    
    130     (1,13,10)             0.0000000      SURF                                    
    131     (1,14,1)              0.0000000      SURF                                    
    132     (1,14,2)              0.0000000      SURF                                    
    133     (1,14,3)              0.0000000      SURF                                    
    134     (1,14,4)              0.0000000      SURF                                    
    135     (1,14,5)              0.0000000      SURF                                    
    136     (1,14,6)              0.0000000      SURF                                    
    137     (1,14,7)              0.0000000      SURF                                    
    138     (1,14,8)              0.0000000      SURF                                    
    139     (1,14,9)              0.0000000      SURF                                    
    140     (1,14,10)             0.0000000      SURF                                    
    141     (1,15,1)              0.0000000      SURF                                    
    142     (1,15,2)              0.0000000      SURF                                    
    143     (1,15,3)              0.0000000      SURF                                    
    144     (1,15,4)              0.0000000      SURF                                    
    145     (1,15,5)              0.0000000      SURF                                    
    146     (1,15,6)              0.0000000      SURF                                    
    147     (1,15,7)              0.0000000      SURF                                    
    148     (1,15,8)              0.0000000      SURF                                    
    149     (1,15,9)              0.0000000      SURF                                    
    150     (1,15,10)             0.0000000      SURF                                    
 ----------------------------------------------------------------------------------------




 API PACKAGE (MAR) FLOW RATES   PERIOD      2   STEP       49
 -----------------------------------------------
   NUMBER   CELLID                    RATE      
 -----------------------------------------------
     1      (1,6,5)               35.040729     
     2      (1,6,6)               35.040729     
     3      (1,6,7)               35.040729     
     4      (1,10,5)              35.199428     
     5      (1,10,6)              35.199428     
     6      (1,10,7)              35.199428     
 -----------------------------------------------



1
  HEAD IN LAYER   1 AT END OF TIME STEP  49 IN STRESS PERIOD    2
  ---------------------------------------------------------------------------

            1           2           3           4           5           6           7           8           9          10
 ........................................................................................................................
   1   2.7320E-03  4.8751E-03  9.3921E-03  1.5859E-02  2.2074E-02  2.4590E-02  2.2141E-02  1.6091E-02  1.0065E-02  6.6054E-03
   2   5.1900E-03  9.5722E-03  1.9127E-02  3.3467E-02  4.7892E-02  5.3561E-02  4.8014E-02  3.3892E-02  2.0388E-02  1.2905E-02
   3   1.0453E-02  2.0038E-02  4.1924E-02  7.7135E-02  0.1154      0.1293      0.1156      7.7958E-02  4.4422E-02  2.6843E-02
   4   1.7589E-02  3.5262E-02  7.8487E-02  0.1564      0.2546      0.2834      0.2550      0.1577      8.2604E-02  4.6848E-02
   5   2.1603E-02  4.5497E-02  0.1111      0.2575      0.5116      0.5472      0.5120      0.2590      0.1161      5.9823E-02
   6   1.3315E-02  2.7574E-02  7.8205E-02  0.2677      0.9997      0.9103       1.000      0.2688      8.1359E-02  3.6082E-02
   7  -9.7195E-03 -3.5068E-02 -0.1198     -0.3468     -0.8767      -2.107     -0.8766     -0.3469     -0.1213     -4.3220E-02
   8  -2.4341E-02 -7.6076E-02 -0.2583     -0.8249      -2.597      -9.232      -2.597     -0.8258     -0.2628     -9.4858E-02
   9  -1.2080E-02 -3.8260E-02 -0.1240     -0.3507     -0.8783      -2.108     -0.8783     -0.3511     -0.1261     -4.7740E-02
  10   9.4964E-03  2.2388E-02  7.1539E-02  0.2620      0.9998      0.9119       1.000      0.2627      7.3669E-02  2.8755E-02
  11   1.7525E-02  3.9739E-02  0.1030      0.2482      0.5035      0.5395      0.5038      0.2493      0.1069      5.1750E-02
  12   1.4259E-02  3.0375E-02  7.1068E-02  0.1467      0.2437      0.2721      0.2440      0.1477      7.4303E-02  4.0040E-02
  13   8.2586E-03  1.6727E-02  3.6651E-02  6.9705E-02  0.1064      0.1197      0.1065      7.0302E-02  3.8571E-02  2.2250E-02
  14   3.9425E-03  7.6562E-03  1.5988E-02  2.8879E-02  4.2133E-02  4.7338E-02  4.2214E-02  2.9177E-02  1.6922E-02  1.0256E-02
  15   1.9805E-03  3.7098E-03  7.4539E-03  1.2973E-02  1.8389E-02  2.0585E-02  1.8433E-02  1.3129E-02  7.9307E-03  4.9969E-03

 HEAD WILL BE SAVED ON UNIT 1100 AT END OF TIME STEP   49, STRESS PERIOD    2


  VOLUME BUDGET FOR ENTIRE MODEL AT END OF TIME STEP   49, STRESS PERIOD   2
  ---------------------------------------------------------------------------------------------------

     CUMULATIVE VOLUME      L**3       RATES FOR THIS TIME STEP      L**3/T          PACKAGE NAME    
     ------------------                 ------------------------                     ----------------

           IN:                                      IN:
           ---                                      ---
              STO-SS =          21.5148                STO-SS =       1.3024E-02     STORAGE                          
              STO-SY =       54256.9738                STO-SY =          28.2666     STORAGE                          
                 WEL =           0.0000                   WEL =           0.0000     WEL-1                            
                 DRN =           0.0000                   DRN =           0.0000     DRN-0                            
                 API =       99249.8406                   API =         210.7205     MAR                              
                 CHD =       2.0279E-08                   CHD =           0.0000     CHD_0                            

            TOTAL IN =      153528.3292              TOTAL IN =         239.0001

          OUT:                                     OUT:
          ----                                     ----
              STO-SS =          17.7984                STO-SS =       1.4235E-02     STORAGE                          
              STO-SY =       34691.8839                STO-SY =          28.0661     STORAGE                          
                 WEL =      118818.6468                   WEL =         210.9198     WEL-1                            
                 DRN =       1.6429E-04                   DRN =       4.6614E-07     DRN-0                            
                 API =           0.0000                   API =           0.0000     MAR                              
                 CHD =       2.0705E-08                   CHD =           0.0000     CHD_0                            

           TOTAL OUT =      153528.3292             TOTAL OUT =         239.0001

            IN - OUT =      -1.2775E-06              IN - OUT =      -3.2421E-09

 PERCENT DISCREPANCY =          -0.00     PERCENT DISCREPANCY =          -0.00




         TIME SUMMARY AT END OF TIME STEP   49 IN STRESS PERIOD    2
                    SECONDS     MINUTES      HOURS       DAYS        YEARS
                    -----------------------------------------------------------
   TIME STEP LENGTH 8.64000E+05  14400.      240.00      10.000     2.73785E-02
 STRESS PERIOD TIME 4.23360E+07 7.05600E+05  11760.      490.00      1.3415    
         TOTAL TIME 4.24224E+07 7.07040E+05  11784.      491.00      1.3443    


end timestep


start timestep kper="2" kstp="50" mode="normal"

 UBDSV1 SAVING           STO-SS ON UNIT   1099 AT TIME STEP     50, STRESS PERIOD      2
 UBDSV1 SAVING           STO-SY ON UNIT   1099 AT TIME STEP     50, STRESS PERIOD      2
 UBDSV1 SAVING     FLOW-JA-FACE ON UNIT   1099 AT TIME STEP     50, STRESS PERIOD      2
 UBDSV06 SAVING       DATA-SPDIS IN MODEL GWF              PACKAGE NPF             CONNECTED TO MODEL GWF              PACKAGE NPF              ON UNIT   1099 AT TIME STEP     50, STRESS PERIOD      2
 UBDSV06 SAVING              WEL IN MODEL GWF              PACKAGE GWF             CONNECTED TO MODEL GWF              PACKAGE WEL-1            ON UNIT   1099 AT TIME STEP     50, STRESS PERIOD      2
 UBDSV06 SAVING              DRN IN MODEL GWF              PACKAGE GWF             CONNECTED TO MODEL GWF              PACKAGE DRN-0            ON UNIT   1099 AT TIME STEP     50, STRESS PERIOD      2
 UBDSV06 SAVING              API IN MODEL GWF              PACKAGE GWF             CONNECTED TO MODEL GWF              PACKAGE MAR              ON UNIT   1099 AT TIME STEP     50, STRESS PERIOD      2
 UBDSV06 SAVING              CHD IN MODEL GWF              PACKAGE GWF             CONNECTED TO MODEL GWF              PACKAGE CHD_0            ON UNIT   1099 AT TIME STEP     50, STRESS PERIOD      2

    CALCULATED INTERCELL FLOW FOR PERIOD 2 STEP 50
(1,1,1): (1,1,2) 2.270269E-02 (1,2,1) 2.589600E-02
(1,1,2): (1,1,1) -2.270269E-02 (1,1,3) 4.755993E-02 (1,2,2) 4.894877E-02
(1,1,3): (1,1,2) -4.755993E-02 (1,1,4) 6.765542E-02 (1,2,3) 0.100601
(1,1,4): (1,1,3) -6.765542E-02 (1,1,5) 6.470653E-02 (1,2,4) 0.181084
(1,1,5): (1,1,4) -6.470653E-02 (1,1,6) 2.618872E-02 (1,2,5) 0.264950
(1,1,6): (1,1,5) -2.618872E-02 (1,1,7) -2.542819E-02 (1,2,6) 0.297221
(1,1,7): (1,1,6) 2.542819E-02 (1,1,8) -6.288760E-02 (1,2,7) 0.265546
(1,1,8): (1,1,7) 6.288760E-02 (1,1,9) -6.285067E-02 (1,2,8) 0.183171
(1,1,9): (1,1,8) 6.285067E-02 (1,1,10) -3.621333E-02 (1,2,9) 0.106858
(1,1,10): (1,1,9) 3.621333E-02 (1,2,10) 6.576448E-02
(1,2,1): (1,1,1) -2.589600E-02 (1,2,2) 4.575473E-02 (1,3,1) 5.480236E-02
(1,2,2): (1,1,2) -4.894877E-02 (1,2,1) -4.575473E-02 (1,2,3) 9.921146E-02 (1,3,2) 0.107886
(1,2,3): (1,1,3) -0.100601 (1,2,2) -9.921146E-02 (1,2,4) 0.148112 (1,3,3) 0.233533
(1,2,4): (1,1,4) -0.181084 (1,2,3) -0.148112 (1,2,5) 0.148476 (1,3,4) 0.446502
(1,2,5): (1,1,5) -0.264950 (1,2,4) -0.148476 (1,2,6) 5.838388E-02 (1,3,5) 0.690686
(1,2,6): (1,1,6) -0.297221 (1,2,5) -5.838388E-02 (1,2,7) -5.702874E-02 (1,3,6) 0.775696
(1,2,7): (1,1,7) -0.265546 (1,2,6) 5.702874E-02 (1,2,8) -0.145164 (1,3,7) 0.691898
(1,2,8): (1,1,8) -0.183171 (1,2,7) 0.145164 (1,2,9) -0.139130 (1,3,8) 0.450779
(1,2,9): (1,1,9) -0.106858 (1,2,8) 0.139130 (1,2,10) -7.729452E-02 (1,3,9) 0.246581
(1,2,10): (1,1,10) -6.576448E-02 (1,2,9) 7.729452E-02 (1,3,10) 0.143962
(1,3,1): (1,2,1) -5.480236E-02 (1,3,2) 9.883379E-02 (1,4,1) 7.294486E-02
(1,3,2): (1,2,2) -0.107886 (1,3,1) -9.883379E-02 (1,3,3) 0.224847 (1,4,2) 0.154437
(1,3,3): (1,2,3) -0.233533 (1,3,2) -0.224847 (1,3,4) 0.360903 (1,4,3) 0.370381
(1,3,4): (1,2,4) -0.446502 (1,3,3) -0.360903 (1,3,5) 0.391952 (1,4,4) 0.807533
(1,3,5): (1,2,5) -0.690686 (1,3,4) -0.391952 (1,3,6) 0.142875 (1,4,5) 1.43089
(1,3,6): (1,2,6) -0.775696 (1,3,5) -0.142875 (1,3,7) -0.140313 (1,4,6) 1.58846
(1,3,7): (1,2,7) -0.691898 (1,3,6) 0.140313 (1,3,8) -0.385567 (1,4,7) 1.43242
(1,3,8): (1,2,8) -0.450779 (1,3,7) 0.385567 (1,3,9) -0.343113 (1,4,8) 0.812946
(1,3,9): (1,2,9) -0.246581 (1,3,8) 0.343113 (1,3,10) -0.179845 (1,4,9) 0.387280
(1,3,10): (1,2,10) -0.143962 (1,3,9) 0.179845 (1,4,10) 0.203367
(1,4,1): (1,3,1) -7.294486E-02 (1,4,2) 0.180347 (1,5,1) 3.858681E-02
(1,4,2): (1,3,2) -0.154437 (1,4,1) -0.180347 (1,4,3) 0.440941 (1,5,2) 9.921478E-02
(1,4,3): (1,3,3) -0.370381 (1,4,2) -0.440941 (1,4,4) 0.798014 (1,5,3) 0.322445
(1,4,4): (1,3,4) -0.807533 (1,4,3) -0.798014 (1,4,5) 1.01286 (1,5,4) 1.02583
(1,4,5): (1,3,5) -1.43089 (1,4,4) -1.01286 (1,4,6) 0.298574 (1,5,5) 2.69202
(1,4,6): (1,3,6) -1.58846 (1,4,5) -0.298574 (1,4,7) -0.294490 (1,5,6) 2.77395
(1,4,7): (1,3,7) -1.43242 (1,4,6) 0.294490 (1,4,8) -1.00254 (1,5,7) 2.69283
(1,4,8): (1,3,8) -0.812946 (1,4,7) 1.00254 (1,4,9) -0.768598 (1,5,8) 1.02848
(1,4,9): (1,3,9) -0.387280 (1,4,8) 0.768598 (1,4,10) -0.363717 (1,5,9) 0.330767
(1,4,10): (1,3,10) -0.203367 (1,4,9) 0.363717 (1,5,10) 0.125695
(1,5,1): (1,4,1) -3.858681E-02 (1,5,2) 0.241060 (1,6,1) -8.925366E-02
(1,5,2): (1,4,2) -9.921478E-02 (1,5,1) -0.241060 (1,5,3) 0.664916 (1,6,2) -0.191143
(1,5,3): (1,4,3) -0.322445 (1,5,2) -0.664916 (1,5,4) 1.50458 (1,6,3) -0.352578
(1,5,4): (1,4,4) -1.02583 (1,5,3) -1.50458 (1,5,5) 2.67885 (1,6,4) 7.808252E-02
(1,5,5): (1,4,5) -2.69202 (1,5,4) -2.67885 (1,5,6) 0.378946 (1,6,5) 5.34902
(1,5,6): (1,4,6) -2.77395 (1,5,5) -0.378946 (1,5,7) -0.374058 (1,6,6) 3.94536
(1,5,7): (1,4,7) -2.69283 (1,5,6) 0.374058 (1,5,8) -2.66651 (1,6,7) 5.34763
(1,5,8): (1,4,8) -1.02848 (1,5,7) 2.66651 (1,5,9) -1.46921 (1,6,8) 7.242647E-02
(1,5,9): (1,4,9) -0.330767 (1,5,8) 1.46921 (1,5,10) -0.569265 (1,6,9) -0.372528
(1,5,10): (1,4,10) -0.125695 (1,5,9) 0.569265 (1,6,10) -0.253968
(1,6,1): (1,5,1) 8.925366E-02 (1,6,2) 0.139120 (1,7,1) -0.238849
(1,6,2): (1,5,2) 0.191143 (1,6,1) -0.139120 (1,6,3) 0.502992 (1,7,2) -0.642438
(1,6,3): (1,5,3) 0.352578 (1,6,2) -0.502992 (1,6,4) 1.94173 (1,7,3) -2.02201
(1,6,4): (1,5,4) -7.808252E-02 (1,6,3) -1.94173 (1,6,5) 8.06813 (1,7,4) -6.35132
(1,6,5): (1,5,5) -5.34902 (1,6,4) -8.06813 (1,6,6) -0.976438 (1,7,5) -20.6995
(1,6,6): (1,5,6) -3.94536 (1,6,5) 0.976438 (1,6,7) 0.980016 (1,7,6) -32.9759
(1,6,7): (1,5,7) -5.34763 (1,6,6) -0.980016 (1,6,8) -8.05984 (1,7,7) -20.7031
(1,6,8): (1,5,8) -7.242647E-02 (1,6,7) 8.05984 (1,6,9) -1.92071 (1,7,8) -6.36471
(1,6,9): (1,5,9) 0.372528 (1,6,8) 1.92071 (1,6,10) -0.450479 (1,7,9) -2.07117
(1,6,10): (1,5,10) 0.253968 (1,6,9) 0.450479 (1,7,10) -0.815322
(1,7,1): (1,6,1) 0.238849 (1,7,2) -0.263144 (1,8,1) -0.149951
(1,7,2): (1,6,2) 0.642438 (1,7,1) 0.263144 (1,7,3) -0.863500 (1,8,2) -0.415111
(1,7,3): (1,6,3) 2.02201 (1,7,2) 0.863500 (1,7,4) -2.26042 (1,8,3) -1.37925
(1,7,4): (1,6,4) 6.35132 (1,7,3) 2.26042 (1,7,5) -5.11004 (1,8,4) -4.62867
(1,7,5): (1,6,5) 20.6995 (1,7,4) 5.11004 (1,7,6) -11.2080 (1,8,5) -15.6968
(1,7,6): (1,6,6) 32.9759 (1,7,5) 11.2080 (1,7,7) 11.2085 (1,8,6) -56.1831
(1,7,7): (1,6,7) 20.7031 (1,7,6) -11.2085 (1,7,8) 5.10812 (1,8,7) -15.6990
(1,7,8): (1,6,8) 6.36471 (1,7,7) -5.10812 (1,7,9) 2.24515 (1,8,8) -4.63694
(1,7,9): (1,6,9) 2.07117 (1,7,8) -2.24515 (1,7,10) 0.791727 (1,8,9) -1.40960
(1,7,10): (1,6,10) 0.815322 (1,7,9) -0.791727 (1,8,10) -0.522973
(1,8,1): (1,7,1) 0.149951 (1,8,2) -0.528606 (1,9,1) 0.126395
(1,8,2): (1,7,2) 0.415111 (1,8,1) 0.528606 (1,8,3) -1.83205 (1,9,2) 0.383721
(1,8,3): (1,7,3) 1.37925 (1,8,2) 1.83205 (1,8,4) -5.54018 (1,9,3) 1.33922
(1,8,4): (1,7,4) 4.62867 (1,8,3) 5.54018 (1,8,5) -16.2401 (1,9,4) 4.59135
(1,8,5): (1,7,5) 15.6968 (1,8,4) 16.2401 (1,8,6) -49.0355 (1,9,5) 15.6800
(1,8,6): (1,7,6) 56.1831 (1,8,5) 49.0355 (1,8,7) 49.0330 (1,9,6) 56.1733
(1,8,7): (1,7,7) 15.6990 (1,8,6) -49.0330 (1,8,8) 16.2308 (1,9,7) 15.6811
(1,8,8): (1,7,8) 4.63694 (1,8,7) -16.2308 (1,8,9) 5.50108 (1,9,8) 4.59691
(1,8,9): (1,7,9) 1.40960 (1,8,8) -5.50108 (1,8,10) 1.68079 (1,9,9) 1.36309
(1,8,10): (1,7,10) 0.522973 (1,8,9) -1.68079 (1,9,10) 0.478480
(1,9,1): (1,8,1) -0.126395 (1,9,2) -0.270906 (1,10,1) 0.224049
(1,9,2): (1,8,2) -0.383721 (1,9,1) 0.270906 (1,9,3) -0.871787 (1,10,2) 0.622240
(1,9,3): (1,8,3) -1.33922 (1,9,2) 0.871787 (1,9,4) -2.25642 (1,10,3) 1.99557
(1,9,4): (1,8,4) -4.59135 (1,9,3) 2.25642 (1,9,5) -5.08753 (1,10,4) 6.32879
(1,9,5): (1,8,5) -15.6800 (1,9,4) 5.08753 (1,9,6) -11.1978 (1,10,5) 20.7112
(1,9,6): (1,8,6) -56.1733 (1,9,5) 11.1978 (1,9,7) 11.1974 (1,10,6) 32.9974
(1,9,7): (1,8,7) -15.6811 (1,9,6) -11.1974 (1,9,8) 5.08376 (1,10,7) 20.7141
(1,9,8): (1,8,8) -4.59691 (1,9,7) -5.08376 (1,9,9) 2.23727 (1,10,8) 6.34043
(1,9,9): (1,8,9) -1.36309 (1,9,8) -2.23727 (1,9,10) 0.793333 (1,10,9) 2.04062
(1,9,10): (1,8,10) -0.478480 (1,9,9) -0.793333 (1,10,10) 0.786735
(1,10,1): (1,9,1) -0.224049 (1,10,2) 0.126055 (1,11,1) 8.636908E-02
(1,10,2): (1,9,2) -0.622240 (1,10,1) -0.126055 (1,10,3) 0.488842 (1,11,2) 0.185024
(1,10,3): (1,9,3) -1.99557 (1,10,2) -0.488842 (1,10,4) 1.95040 (1,11,3) 0.337574
(1,10,4): (1,9,4) -6.32879 (1,10,3) -1.95040 (1,10,5) 8.12428 (1,11,4) -0.113496
(1,10,5): (1,9,5) -20.7112 (1,10,4) -8.12428 (1,10,6) -0.960480 (1,11,5) -5.43058
(1,10,6): (1,9,6) -32.9974 (1,10,5) 0.960480 (1,10,7) 0.962544 (1,11,6) -4.03838
(1,10,7): (1,9,7) -20.7141 (1,10,6) -0.962544 (1,10,8) -8.11894 (1,11,7) -5.42922
(1,10,8): (1,9,8) -6.34043 (1,10,7) 8.11894 (1,10,9) -1.93565 (1,11,8) -0.108124
(1,10,9): (1,9,9) -2.04062 (1,10,8) 1.93565 (1,10,10) -0.447273 (1,11,9) 0.356777
(1,10,10): (1,9,10) -0.786735 (1,10,9) 0.447273 (1,11,10) 0.245861
(1,11,1): (1,10,1) -8.636908E-02 (1,11,2) 0.224749 (1,12,1) -3.132941E-02
(1,11,2): (1,10,2) -0.185024 (1,11,1) -0.224749 (1,11,3) 0.641843 (1,12,2) -9.091436E-02
(1,11,3): (1,10,3) -0.337574 (1,11,2) -0.641843 (1,11,4) 1.49248 (1,12,3) -0.315994
(1,11,4): (1,10,4) 0.113496 (1,11,3) -1.49248 (1,11,5) 2.68899 (1,12,4) -1.03059
(1,11,5): (1,10,5) 5.43058 (1,11,4) -2.68899 (1,11,6) 0.382797 (1,12,5) -2.71914
(1,11,6): (1,10,6) 4.03838 (1,11,5) -0.382797 (1,11,7) -0.379435 (1,12,6) -2.80936
(1,11,7): (1,10,7) 5.42922 (1,11,6) 0.379435 (1,11,8) -2.67973 (1,12,7) -2.71963
(1,11,8): (1,10,8) 0.108124 (1,11,7) 2.67973 (1,11,9) -1.46383 (1,12,8) -1.03235
(1,11,9): (1,10,9) -0.356777 (1,11,8) 1.46383 (1,11,10) -0.558405 (1,12,9) -0.322269
(1,11,10): (1,10,10) -0.245861 (1,11,9) 0.558405 (1,12,10) -0.113579
(1,12,1): (1,11,1) 3.132941E-02 (1,12,2) 0.165085 (1,13,1) -6.162501E-02
(1,12,2): (1,11,2) 9.091436E-02 (1,12,1) -0.165085 (1,12,3) 0.416047 (1,13,2) -0.138932
(1,12,3): (1,11,3) 0.315994 (1,12,2) -0.416047 (1,12,4) 0.774768 (1,13,3) -0.349399
(1,12,4): (1,11,4) 1.03059 (1,12,3) -0.774768 (1,12,5) 1.00089 (1,13,4) -0.784665
(1,12,5): (1,11,5) 2.71914 (1,12,4) -1.00089 (1,12,6) 0.294347 (1,13,5) -1.41167
(1,12,6): (1,11,6) 2.80936 (1,12,5) -0.294347 (1,12,7) -0.291471 (1,13,6) -1.57102
(1,12,7): (1,11,7) 2.71963 (1,12,6) 0.291471 (1,12,8) -0.993048 (1,13,7) -1.41277
(1,12,8): (1,11,8) 1.03235 (1,12,7) 0.993048 (1,12,9) -0.750847 (1,13,8) -0.788800
(1,12,9): (1,11,9) 0.322269 (1,12,8) 0.750847 (1,12,10) -0.349235 (1,13,9) -0.363196
(1,12,10): (1,11,10) 0.113579 (1,12,9) 0.349235 (1,13,10) -0.181489
(1,13,1): (1,12,1) 6.162501E-02 (1,13,2) 8.775776E-02 (1,14,1) -4.523551E-02
(1,13,2): (1,12,2) 0.138932 (1,13,1) -8.775776E-02 (1,13,3) 0.205442 (1,14,2) -9.397348E-02
(1,13,3): (1,12,3) 0.349399 (1,13,2) -0.205442 (1,13,4) 0.339543 (1,14,3) -0.212465
(1,13,4): (1,12,4) 0.784665 (1,13,3) -0.339543 (1,13,5) 0.376308 (1,14,4) -0.418514
(1,13,5): (1,12,5) 1.41167 (1,13,4) -0.376308 (1,13,6) 0.136875 (1,14,5) -0.658661
(1,13,6): (1,12,6) 1.57102 (1,13,5) -0.136875 (1,13,7) -0.135092 (1,14,6) -0.742250
(1,13,7): (1,12,7) 1.41277 (1,13,6) 0.135092 (1,13,8) -0.371539 (1,14,7) -0.659532
(1,13,8): (1,12,8) 0.788800 (1,13,7) 0.371539 (1,13,9) -0.325399 (1,14,8) -0.421754
(1,13,9): (1,12,9) 0.363196 (1,13,8) 0.325399 (1,13,10) -0.167553 (1,14,9) -0.222934
(1,13,10): (1,12,10) 0.181489 (1,13,9) 0.167553 (1,14,10) -0.124536
(1,14,1): (1,13,1) 4.523551E-02 (1,14,2) 3.902280E-02 (1,15,1) -2.083466E-02
(1,14,2): (1,13,2) 9.397348E-02 (1,14,1) -3.902280E-02 (1,14,3) 8.695923E-02 (1,15,2) -4.139203E-02
(1,14,3): (1,13,3) 0.212465 (1,14,2) -8.695923E-02 (1,14,4) 0.133653 (1,15,3) -8.866021E-02
(1,14,4): (1,13,4) 0.418514 (1,14,3) -0.133653 (1,14,5) 0.136819 (1,15,4) -0.164277
(1,14,5): (1,13,5) 0.658661 (1,14,4) -0.136819 (1,14,6) 5.377582E-02 (1,15,5) -0.244511
(1,14,6): (1,13,6) 0.742250 (1,14,5) -5.377582E-02 (1,14,7) -5.286006E-02 (1,15,6) -0.275387
(1,14,7): (1,13,7) 0.659532 (1,14,6) 5.286006E-02 (1,14,8) -0.134427 (1,15,7) -0.244933
(1,14,8): (1,13,8) 0.421754 (1,14,7) 0.134427 (1,14,9) -0.126767 (1,15,8) -0.165828
(1,14,9): (1,13,9) 0.222934 (1,14,8) 0.126767 (1,14,10) -6.920838E-02 (1,15,9) -9.356648E-02
(1,14,10): (1,13,10) 0.124536 (1,14,9) 6.920838E-02 (1,15,10) -5.526260E-02
(1,15,1): (1,14,1) 2.083466E-02 (1,15,2) 1.846592E-02
(1,15,2): (1,14,2) 4.139203E-02 (1,15,1) -1.846592E-02 (1,15,3) 3.969184E-02
(1,15,3): (1,14,3) 8.866021E-02 (1,15,2) -3.969184E-02 (1,15,4) 5.805973E-02
(1,15,4): (1,14,4) 0.164277 (1,15,3) -5.805973E-02 (1,15,5) 5.666991E-02
(1,15,5): (1,14,5) 0.244511 (1,15,4) -5.666991E-02 (1,15,6) 2.296812E-02
(1,15,6): (1,14,6) 0.275387 (1,15,5) -2.296812E-02 (1,15,7) -2.247318E-02
(1,15,7): (1,14,7) 0.244933 (1,15,6) 2.247318E-02 (1,15,8) -5.540884E-02
(1,15,8): (1,14,8) 0.165828 (1,15,7) 5.540884E-02 (1,15,9) -5.453292E-02
(1,15,9): (1,14,9) 9.356648E-02 (1,15,8) 5.453292E-02 (1,15,10) -3.091378E-02
(1,15,10): (1,14,10) 5.526260E-02 (1,15,9) 3.091378E-02

 WEL PACKAGE (WEL-1) FLOW RATES   PERIOD      2   STEP       50
 ----------------------------------------------------------------------------------------
   NUMBER   CELLID                    RATE       NAME                                    
 ----------------------------------------------------------------------------------------
     1      (1,8,6)              -210.61866      WEL                                     
 ----------------------------------------------------------------------------------------




 DRN PACKAGE (DRN-0) FLOW RATES   PERIOD      2   STEP       50
 ----------------------------------------------------------------------------------------
   NUMBER   CELLID                    RATE       NAME                                    
 ----------------------------------------------------------------------------------------
     1      (1,1,1)               0.0000000      SURF                                    
     2      (1,1,2)               0.0000000      SURF                                    
     3      (1,1,3)               0.0000000      SURF                                    
     4      (1,1,4)               0.0000000      SURF                                    
     5      (1,1,5)               0.0000000      SURF                                    
     6      (1,1,6)               0.0000000      SURF                                    
     7      (1,1,7)               0.0000000      SURF                                    
     8      (1,1,8)               0.0000000      SURF                                    
     9      (1,1,9)               0.0000000      SURF                                    
     10     (1,1,10)              0.0000000      SURF                                    
     11     (1,2,1)               0.0000000      SURF                                    
     12     (1,2,2)               0.0000000      SURF                                    
     13     (1,2,3)               0.0000000      SURF                                    
     14     (1,2,4)               0.0000000      SURF                                    
     15     (1,2,5)               0.0000000      SURF                                    
     16     (1,2,6)               0.0000000      SURF                                    
     17     (1,2,7)               0.0000000      SURF                                    
     18     (1,2,8)               0.0000000      SURF                                    
     19     (1,2,9)               0.0000000      SURF                                    
     20     (1,2,10)              0.0000000      SURF                                    
     21     (1,3,1)               0.0000000      SURF                                    
     22     (1,3,2)               0.0000000      SURF                                    
     23     (1,3,3)               0.0000000      SURF                                    
     24     (1,3,4)               0.0000000      SURF                                    
     25     (1,3,5)               0.0000000      SURF                                    
     26     (1,3,6)               0.0000000      SURF                                    
     27     (1,3,7)               0.0000000      SURF                                    
     28     (1,3,8)               0.0000000      SURF                                    
     29     (1,3,9)               0.0000000      SURF                                    
     30     (1,3,10)              0.0000000      SURF                                    
     31     (1,4,1)               0.0000000      SURF                                    
     32     (1,4,2)               0.0000000      SURF                                    
     33     (1,4,3)               0.0000000      SURF                                    
     34     (1,4,4)               0.0000000      SURF                                    
     35     (1,4,5)               0.0000000      SURF                                    
     36     (1,4,6)               0.0000000      SURF                                    
     37     (1,4,7)               0.0000000      SURF                                    
     38     (1,4,8)               0.0000000      SURF                                    
     39     (1,4,9)               0.0000000      SURF                                    
     40     (1,4,10)              0.0000000      SURF                                    
     41     (1,5,1)               0.0000000      SURF                                    
     42     (1,5,2)               0.0000000      SURF                                    
     43     (1,5,3)               0.0000000      SURF                                    
     44     (1,5,4)               0.0000000      SURF                                    
     45     (1,5,5)               0.0000000      SURF                                    
     46     (1,5,6)               0.0000000      SURF                                    
     47     (1,5,7)               0.0000000      SURF                                    
     48     (1,5,8)               0.0000000      SURF                                    
     49     (1,5,9)               0.0000000      SURF                                    
     50     (1,5,10)              0.0000000      SURF                                    
     51     (1,6,1)               0.0000000      SURF                                    
     52     (1,6,2)               0.0000000      SURF                                    
     53     (1,6,3)               0.0000000      SURF                                    
     54     (1,6,4)               0.0000000      SURF                                    
     55     (1,6,5)               0.0000000      SURF                                    
     56     (1,6,6)               0.0000000      SURF                                    
     57     (1,6,7)              -3.50366463E-07 SURF                                    
     58     (1,6,8)               0.0000000      SURF                                    
     59     (1,6,9)               0.0000000      SURF                                    
     60     (1,6,10)              0.0000000      SURF                                    
     61     (1,7,1)               0.0000000      SURF                                    
     62     (1,7,2)               0.0000000      SURF                                    
     63     (1,7,3)               0.0000000      SURF                                    
     64     (1,7,4)               0.0000000      SURF                                    
     65     (1,7,5)               0.0000000      SURF                                    
     66     (1,7,6)               0.0000000      SURF                                    
     67     (1,7,7)               0.0000000      SURF                                    
     68     (1,7,8)               0.0000000      SURF                                    
     69     (1,7,9)               0.0000000      SURF                                    
     70     (1,7,10)              0.0000000      SURF                                    
     71     (1,8,1)               0.0000000      SURF                                    
     72     (1,8,2)               0.0000000      SURF                                    
     73     (1,8,3)               0.0000000      SURF                                    
     74     (1,8,4)               0.0000000      SURF                                    
     75     (1,8,5)               0.0000000      SURF                                    
     76     (1,8,6)               0.0000000      SURF                                    
     77     (1,8,7)               0.0000000      SURF                                    
     78     (1,8,8)               0.0000000      SURF                                    
     79     (1,8,9)               0.0000000      SURF                                    
     80     (1,8,10)              0.0000000      SURF                                    
     81     (1,9,1)               0.0000000      SURF                                    
     82     (1,9,2)               0.0000000      SURF                                    
     83     (1,9,3)               0.0000000      SURF                                    
     84     (1,9,4)               0.0000000      SURF                                    
     85     (1,9,5)               0.0000000      SURF                                    
     86     (1,9,6)               0.0000000      SURF                                    
     87     (1,9,7)               0.0000000      SURF                                    
     88     (1,9,8)               0.0000000      SURF                                    
     89     (1,9,9)               0.0000000      SURF                                    
     90     (1,9,10)              0.0000000      SURF                                    
     91     (1,10,1)              0.0000000      SURF                                    
     92     (1,10,2)              0.0000000      SURF                                    
     93     (1,10,3)              0.0000000      SURF                                    
     94     (1,10,4)              0.0000000      SURF                                    
     95     (1,10,5)              0.0000000      SURF                                    
     96     (1,10,6)              0.0000000      SURF                                    
     97     (1,10,7)              0.0000000      SURF                                    
     98     (1,10,8)              0.0000000      SURF                                    
     99     (1,10,9)              0.0000000      SURF                                    
    100     (1,10,10)             0.0000000      SURF                                    
    101     (1,11,1)              0.0000000      SURF                                    
    102     (1,11,2)              0.0000000      SURF                                    
    103     (1,11,3)              0.0000000      SURF                                    
    104     (1,11,4)              0.0000000      SURF                                    
    105     (1,11,5)              0.0000000      SURF                                    
    106     (1,11,6)              0.0000000      SURF                                    
    107     (1,11,7)              0.0000000      SURF                                    
    108     (1,11,8)              0.0000000      SURF                                    
    109     (1,11,9)              0.0000000      SURF                                    
    110     (1,11,10)             0.0000000      SURF                                    
    111     (1,12,1)              0.0000000      SURF                                    
    112     (1,12,2)              0.0000000      SURF                                    
    113     (1,12,3)              0.0000000      SURF                                    
    114     (1,12,4)              0.0000000      SURF                                    
    115     (1,12,5)              0.0000000      SURF                                    
    116     (1,12,6)              0.0000000      SURF                                    
    117     (1,12,7)              0.0000000      SURF                                    
    118     (1,12,8)              0.0000000      SURF                                    
    119     (1,12,9)              0.0000000      SURF                                    
    120     (1,12,10)             0.0000000      SURF                                    
    121     (1,13,1)              0.0000000      SURF                                    
    122     (1,13,2)              0.0000000      SURF                                    
    123     (1,13,3)              0.0000000      SURF                                    
    124     (1,13,4)              0.0000000      SURF                                    
    125     (1,13,5)              0.0000000      SURF                                    
    126     (1,13,6)              0.0000000      SURF                                    
    127     (1,13,7)              0.0000000      SURF                                    
    128     (1,13,8)              0.0000000      SURF                                    
    129     (1,13,9)              0.0000000      SURF                                    
    130     (1,13,10)             0.0000000      SURF                                    
    131     (1,14,1)              0.0000000      SURF                                    
    132     (1,14,2)              0.0000000      SURF                                    
    133     (1,14,3)              0.0000000      SURF                                    
    134     (1,14,4)              0.0000000      SURF                                    
    135     (1,14,5)              0.0000000      SURF                                    
    136     (1,14,6)              0.0000000      SURF                                    
    137     (1,14,7)              0.0000000      SURF                                    
    138     (1,14,8)              0.0000000      SURF                                    
    139     (1,14,9)              0.0000000      SURF                                    
    140     (1,14,10)             0.0000000      SURF                                    
    141     (1,15,1)              0.0000000      SURF                                    
    142     (1,15,2)              0.0000000      SURF                                    
    143     (1,15,3)              0.0000000      SURF                                    
    144     (1,15,4)              0.0000000      SURF                                    
    145     (1,15,5)              0.0000000      SURF                                    
    146     (1,15,6)              0.0000000      SURF                                    
    147     (1,15,7)              0.0000000      SURF                                    
    148     (1,15,8)              0.0000000      SURF                                    
    149     (1,15,9)              0.0000000      SURF                                    
    150     (1,15,10)             0.0000000      SURF                                    
 ----------------------------------------------------------------------------------------




 API PACKAGE (MAR) FLOW RATES   PERIOD      2   STEP       50
 -----------------------------------------------
   NUMBER   CELLID                    RATE      
 -----------------------------------------------
     1      (1,6,5)               35.090552     
     2      (1,6,6)               35.090552     
     3      (1,6,7)               35.090552     
     4      (1,10,5)              35.115669     
     5      (1,10,6)              35.115669     
     6      (1,10,7)              35.115669     
 -----------------------------------------------



1
  HEAD IN LAYER   1 AT END OF TIME STEP  50 IN STRESS PERIOD    2
  ---------------------------------------------------------------------------

            1           2           3           4           5           6           7           8           9          10
 ........................................................................................................................
   1   2.9749E-03  5.2440E-03  9.9952E-03  1.6749E-02  2.3205E-02  2.5817E-02  2.3281E-02  1.7007E-02  1.0732E-02  7.1150E-03
   2   5.5631E-03  1.0134E-02  2.0035E-02  3.4795E-02  4.9569E-02  5.5376E-02  4.9704E-02  3.5260E-02  2.1395E-02  1.3682E-02
   3   1.1037E-02  2.0900E-02  4.3288E-02  7.9095E-02  0.1178      0.1319      0.1181      7.9980E-02  4.5941E-02  2.8038E-02
   4   1.8318E-02  3.6288E-02  8.0032E-02  0.1586      0.2573      0.2864      0.2577      0.1600      8.4345E-02  4.8277E-02
   5   2.2169E-02  4.6164E-02  0.1119      0.2586      0.5134      0.5493      0.5139      0.2602      0.1170      6.0771E-02
   6   1.3263E-02  2.7137E-02  7.7052E-02  0.2662      0.9997      0.9109       1.000      0.2673      8.0217E-02  3.5528E-02
   7  -1.0590E-02 -3.6933E-02 -0.1236     -0.3525     -0.8821      -2.111     -0.8821     -0.3526     -0.1253     -4.5716E-02
   8  -2.5601E-02 -7.8598E-02 -0.2633     -0.8323      -2.604      -9.233      -2.604     -0.8333     -0.2680     -9.8253E-02
   9  -1.2945E-02 -4.0071E-02 -0.1276     -0.3562     -0.8837      -2.112     -0.8837     -0.3566     -0.1299     -5.0164E-02
  10   9.4383E-03  2.2016E-02  7.0558E-02  0.2606      0.9993      0.9119      0.9994      0.2613      7.2692E-02  2.8287E-02
  11   1.8060E-02  4.0444E-02  0.1040      0.2496      0.5055      0.5419      0.5059      0.2508      0.1080      5.2745E-02
  12   1.4932E-02  3.1389E-02  7.2694E-02  0.1490      0.2467      0.2754      0.2470      0.1501      7.6106E-02  4.1446E-02
  13   8.7790E-03  1.7539E-02  3.8006E-02  7.1718E-02  0.1089      0.1225      0.1091      7.2367E-02  4.0061E-02  2.3372E-02
  14   4.2594E-03  8.1585E-03  1.6840E-02  3.0165E-02  4.3787E-02  4.9139E-02  4.3878E-02  3.0494E-02  1.7856E-02  1.0948E-02
  15   2.1769E-03  4.0227E-03  7.9887E-03  1.3787E-02  1.9443E-02  2.1735E-02  1.9492E-02  1.3962E-02  8.5163E-03  5.4276E-03

 HEAD WILL BE SAVED ON UNIT 1100 AT END OF TIME STEP   50, STRESS PERIOD    2


  VOLUME BUDGET FOR ENTIRE MODEL AT END OF TIME STEP   50, STRESS PERIOD   2
  ---------------------------------------------------------------------------------------------------

     CUMULATIVE VOLUME      L**3       RATES FOR THIS TIME STEP      L**3/T          PACKAGE NAME    
     ------------------                 ------------------------                     ----------------

           IN:                                      IN:
           ---                                      ---
              STO-SS =          21.6422                STO-SS =       1.2737E-02     STORAGE                          
              STO-SY =       54532.5448                STO-SY =          27.5571     STORAGE                          
                 WEL =           0.0000                   WEL =           0.0000     WEL-1                            
                 DRN =           0.0000                   DRN =           0.0000     DRN-0                            
                 API =      101356.0272                   API =         210.6187     MAR                              
                 CHD =       2.0279E-08                   CHD =           0.0000     CHD_0                            

            TOTAL IN =      155910.2142              TOTAL IN =         238.1885

          OUT:                                     OUT:
          ----                                     ----
              STO-SS =          17.9381                STO-SS =       1.3971E-02     STORAGE                          
              STO-SY =       34967.4425                STO-SY =          27.5559     STORAGE                          
                 WEL =      120924.8335                   WEL =         210.6187     WEL-1                            
                 DRN =       1.6779E-04                   DRN =       3.5037E-07     DRN-0                            
                 API =           0.0000                   API =           0.0000     MAR                              
                 CHD =       2.0705E-08                   CHD =           0.0000     CHD_0                            

           TOTAL OUT =      155910.2142             TOTAL OUT =         238.1885

            IN - OUT =      -1.2684E-06              IN - OUT =       9.1759E-10

 PERCENT DISCREPANCY =          -0.00     PERCENT DISCREPANCY =           0.00




         TIME SUMMARY AT END OF TIME STEP   50 IN STRESS PERIOD    2
                    SECONDS     MINUTES      HOURS       DAYS        YEARS
                    -----------------------------------------------------------
   TIME STEP LENGTH 8.64000E+05  14400.      240.00      10.000     2.73785E-02
 STRESS PERIOD TIME 4.32000E+07 7.20000E+05  12000.      500.00      1.3689    
         TOTAL TIME 4.32864E+07 7.21440E+05  12024.      501.00      1.3717    


end timestep


start timestep kper="2" kstp="51" mode="normal"

 UBDSV1 SAVING           STO-SS ON UNIT   1099 AT TIME STEP     51, STRESS PERIOD      2
 UBDSV1 SAVING           STO-SY ON UNIT   1099 AT TIME STEP     51, STRESS PERIOD      2
 UBDSV1 SAVING     FLOW-JA-FACE ON UNIT   1099 AT TIME STEP     51, STRESS PERIOD      2
 UBDSV06 SAVING       DATA-SPDIS IN MODEL GWF              PACKAGE NPF             CONNECTED TO MODEL GWF              PACKAGE NPF              ON UNIT   1099 AT TIME STEP     51, STRESS PERIOD      2
 UBDSV06 SAVING              WEL IN MODEL GWF              PACKAGE GWF             CONNECTED TO MODEL GWF              PACKAGE WEL-1            ON UNIT   1099 AT TIME STEP     51, STRESS PERIOD      2
 UBDSV06 SAVING              DRN IN MODEL GWF              PACKAGE GWF             CONNECTED TO MODEL GWF              PACKAGE DRN-0            ON UNIT   1099 AT TIME STEP     51, STRESS PERIOD      2
 UBDSV06 SAVING              API IN MODEL GWF              PACKAGE GWF             CONNECTED TO MODEL GWF              PACKAGE MAR              ON UNIT   1099 AT TIME STEP     51, STRESS PERIOD      2
 UBDSV06 SAVING              CHD IN MODEL GWF              PACKAGE GWF             CONNECTED TO MODEL GWF              PACKAGE CHD_0            ON UNIT   1099 AT TIME STEP     51, STRESS PERIOD      2

    CALCULATED INTERCELL FLOW FOR PERIOD 2 STEP 51
(1,1,1): (1,1,2) 2.398477E-02 (1,2,1) 2.720400E-02
(1,1,2): (1,1,1) -2.398477E-02 (1,1,3) 4.993460E-02 (1,2,2) 5.086150E-02
(1,1,3): (1,1,2) -4.993460E-02 (1,1,4) 7.055197E-02 (1,2,3) 0.103602
(1,1,4): (1,1,3) -7.055197E-02 (1,1,5) 6.713647E-02 (1,2,4) 0.185370
(1,1,5): (1,1,4) -6.713647E-02 (1,1,6) 2.715431E-02 (1,2,5) 0.270294
(1,1,6): (1,1,5) -2.715431E-02 (1,1,7) -2.630373E-02 (1,2,6) 0.302974
(1,1,7): (1,1,6) 2.630373E-02 (1,1,8) -6.513482E-02 (1,2,7) 0.270938
(1,1,8): (1,1,7) 6.513482E-02 (1,1,9) -6.534158E-02 (1,2,8) 0.187601
(1,1,9): (1,1,8) 6.534158E-02 (1,1,10) -3.779395E-02 (1,2,9) 0.110210
(1,1,10): (1,1,9) 3.779395E-02 (1,2,10) 6.842141E-02
(1,2,1): (1,1,1) -2.720400E-02 (1,2,2) 4.764150E-02 (1,3,1) 5.688887E-02
(1,2,2): (1,1,2) -5.086150E-02 (1,2,1) -4.764150E-02 (1,2,3) 0.102674 (1,3,2) 0.110817
(1,2,3): (1,1,3) -0.103602 (1,2,2) -0.102674 (1,2,4) 0.152293 (1,3,3) 0.237936
(1,2,4): (1,1,4) -0.185370 (1,2,3) -0.152293 (1,2,5) 0.151961 (1,3,4) 0.452632
(1,2,5): (1,1,5) -0.270294 (1,2,4) -0.151961 (1,2,6) 5.975627E-02 (1,3,5) 0.698310
(1,2,6): (1,1,6) -0.302974 (1,2,5) -5.975627E-02 (1,2,7) -5.826276E-02 (1,3,6) 0.783901
(1,2,7): (1,1,7) -0.270938 (1,2,6) 5.826276E-02 (1,2,8) -0.148371 (1,3,7) 0.699605
(1,2,8): (1,1,8) -0.187601 (1,2,7) 0.148371 (1,2,9) -0.142698 (1,3,8) 0.457150
(1,2,9): (1,1,9) -0.110210 (1,2,8) 0.142698 (1,2,10) -7.956996E-02 (1,3,9) 0.251554
(1,2,10): (1,1,10) -6.842141E-02 (1,2,9) 7.956996E-02 (1,3,10) 0.148051
(1,3,1): (1,2,1) -5.688887E-02 (1,3,2) 0.101564 (1,4,1) 7.428867E-02
(1,3,2): (1,2,2) -0.110817 (1,3,1) -0.101564 (1,3,3) 0.229784 (1,4,2) 0.155907
(1,3,3): (1,2,3) -0.237936 (1,3,2) -0.229784 (1,3,4) 0.366808 (1,4,3) 0.371961
(1,3,4): (1,2,4) -0.452632 (1,3,3) -0.366808 (1,3,5) 0.396922 (1,4,4) 0.809408
(1,3,5): (1,2,5) -0.698310 (1,3,4) -0.396922 (1,3,6) 0.144820 (1,4,5) 1.43371
(1,3,6): (1,2,6) -0.783901 (1,3,5) -0.144820 (1,3,7) -0.142037 (1,4,6) 1.59174
(1,3,7): (1,2,7) -0.699605 (1,3,6) 0.142037 (1,3,8) -0.390099 (1,4,7) 1.43532
(1,3,8): (1,2,8) -0.457150 (1,3,7) 0.390099 (1,3,9) -0.348075 (1,4,8) 0.815014
(1,3,9): (1,2,9) -0.251554 (1,3,8) 0.348075 (1,3,10) -0.183003 (1,4,9) 0.389254
(1,3,10): (1,2,10) -0.148051 (1,3,9) 0.183003 (1,4,10) 0.205476
(1,4,1): (1,3,1) -7.428867E-02 (1,4,2) 0.183205 (1,5,1) 3.678070E-02
(1,4,2): (1,3,2) -0.155907 (1,4,1) -0.183205 (1,4,3) 0.445995 (1,5,2) 9.542839E-02
(1,4,3): (1,3,3) -0.371961 (1,4,2) -0.445995 (1,4,4) 0.804233 (1,5,3) 0.315038
(1,4,4): (1,3,4) -0.809408 (1,4,3) -0.804233 (1,4,5) 1.01879 (1,5,4) 1.01538
(1,4,5): (1,3,5) -1.43371 (1,4,4) -1.01879 (1,4,6) 0.300976 (1,5,5) 2.68260
(1,4,6): (1,3,6) -1.59174 (1,4,5) -0.300976 (1,4,7) -0.296598 (1,5,6) 2.76548
(1,4,7): (1,3,7) -1.43532 (1,4,6) 0.296598 (1,4,8) -1.00791 (1,5,7) 2.68341
(1,4,8): (1,3,8) -0.815014 (1,4,7) 1.00791 (1,4,9) -0.773666 (1,5,8) 1.01793
(1,4,9): (1,3,9) -0.389254 (1,4,8) 0.773666 (1,4,10) -0.366741 (1,5,9) 0.322949
(1,4,10): (1,3,10) -0.205476 (1,4,9) 0.366741 (1,5,10) 0.120581
(1,5,1): (1,4,1) -3.678070E-02 (1,5,2) 0.241937 (1,6,1) -9.556055E-02
(1,5,2): (1,4,2) -9.542839E-02 (1,5,1) -0.241937 (1,5,3) 0.666357 (1,6,2) -0.202217
(1,5,3): (1,4,3) -0.315038 (1,5,2) -0.666357 (1,5,4) 1.50783 (1,6,3) -0.372165
(1,5,4): (1,4,4) -1.01538 (1,5,3) -1.50783 (1,5,5) 2.68606 (1,6,4) 5.185453E-02
(1,5,5): (1,4,5) -2.68260 (1,5,4) -2.68606 (1,5,6) 0.382278 (1,6,5) 5.33000
(1,5,6): (1,4,6) -2.76548 (1,5,5) -0.382278 (1,5,7) -0.377109 (1,6,6) 3.93029
(1,5,7): (1,4,7) -2.68341 (1,5,6) 0.377109 (1,5,8) -2.67323 (1,6,7) 5.32845
(1,5,8): (1,4,8) -1.01793 (1,5,7) 2.67323 (1,5,9) -1.47163 (1,6,8) 4.567629E-02
(1,5,9): (1,4,9) -0.322949 (1,5,8) 1.47163 (1,5,10) -0.569595 (1,6,9) -0.393676
(1,5,10): (1,4,10) -0.120581 (1,5,9) 0.569595 (1,6,10) -0.269097
(1,6,1): (1,5,1) 9.556055E-02 (1,6,2) 0.135239 (1,7,1) -0.247021
(1,6,2): (1,5,2) 0.202217 (1,6,1) -0.135239 (1,6,3) 0.495923 (1,7,2) -0.656443
(1,6,3): (1,5,3) 0.372165 (1,6,2) -0.495923 (1,6,4) 1.93819 (1,7,3) -2.04720
(1,6,4): (1,5,4) -5.185453E-02 (1,6,3) -1.93819 (1,6,5) 8.08428 (1,7,4) -6.39060
(1,6,5): (1,5,5) -5.33000 (1,6,4) -8.08428 (1,6,6) -0.969441 (1,7,5) -20.7559
(1,6,6): (1,5,6) -3.93029 (1,6,5) 0.969441 (1,6,7) 0.973152 (1,7,6) -33.0246
(1,6,7): (1,5,7) -5.32845 (1,6,6) -0.973152 (1,6,8) -8.07588 (1,7,7) -20.7597
(1,6,8): (1,5,8) -4.567629E-02 (1,6,7) 8.07588 (1,6,9) -1.91737 (1,7,8) -6.40471
(1,6,9): (1,5,9) 0.393676 (1,6,8) 1.91737 (1,6,10) -0.444804 (1,7,9) -2.09839
(1,6,10): (1,5,10) 0.269097 (1,6,9) 0.444804 (1,7,10) -0.834421
(1,7,1): (1,6,1) 0.247021 (1,7,2) -0.272807 (1,8,1) -0.153786
(1,7,2): (1,6,2) 0.656443 (1,7,1) 0.272807 (1,7,3) -0.881462 (1,8,2) -0.421413
(1,7,3): (1,6,3) 2.04720 (1,7,2) 0.881462 (1,7,4) -2.27646 (1,8,3) -1.38990
(1,7,4): (1,6,4) 6.39060 (1,7,3) 2.27646 (1,7,5) -5.10475 (1,8,4) -4.64227
(1,7,5): (1,6,5) 20.7559 (1,7,4) 5.10475 (1,7,6) -11.1882 (1,8,5) -15.7020
(1,7,6): (1,6,6) 33.0246 (1,7,5) 11.1882 (1,7,7) 11.1887 (1,8,6) -56.1352
(1,7,7): (1,6,7) 20.7597 (1,7,6) -11.1887 (1,7,8) 5.10243 (1,8,7) -15.7042
(1,7,8): (1,6,8) 6.40471 (1,7,7) -5.10243 (1,7,9) 2.25964 (1,8,8) -4.65089
(1,7,9): (1,6,9) 2.09839 (1,7,8) -2.25964 (1,7,10) 0.805200 (1,8,9) -1.42120
(1,7,10): (1,6,10) 0.834421 (1,7,9) -0.805200 (1,8,10) -0.531574
(1,8,1): (1,7,1) 0.153786 (1,8,2) -0.540755 (1,9,1) 0.130296
(1,8,2): (1,7,2) 0.421413 (1,8,1) 0.540755 (1,8,3) -1.85450 (1,9,2) 0.390551
(1,8,3): (1,7,3) 1.38990 (1,8,2) 1.85450 (1,8,4) -5.55942 (1,9,3) 1.35111
(1,8,4): (1,7,4) 4.64227 (1,8,3) 5.55942 (1,8,5) -16.2240 (1,9,4) 4.60647
(1,8,5): (1,7,5) 15.7020 (1,8,4) 16.2240 (1,8,6) -48.9485 (1,9,5) 15.6852
(1,8,6): (1,7,6) 56.1352 (1,8,5) 48.9485 (1,8,7) 48.9458 (1,9,6) 56.1249
(1,8,7): (1,7,7) 15.7042 (1,8,6) -48.9458 (1,8,8) 16.2139 (1,9,7) 15.6864
(1,8,8): (1,7,8) 4.65089 (1,8,7) -16.2139 (1,8,9) 5.51807 (1,9,8) 4.61232
(1,8,9): (1,7,9) 1.42120 (1,8,8) -5.51807 (1,8,10) 1.69732 (1,9,9) 1.37592
(1,8,10): (1,7,10) 0.531574 (1,8,9) -1.69732 (1,9,10) 0.487799
(1,9,1): (1,8,1) -0.130296 (1,9,2) -0.280107 (1,10,1) 0.232123
(1,9,2): (1,8,2) -0.390551 (1,9,1) 0.280107 (1,9,3) -0.889046 (1,10,2) 0.636364
(1,9,3): (1,8,3) -1.35111 (1,9,2) 0.889046 (1,9,4) -2.27224 (1,10,3) 2.02116
(1,9,4): (1,8,4) -4.60647 (1,9,3) 2.27224 (1,9,5) -5.08371 (1,10,4) 6.36768
(1,9,5): (1,8,5) -15.6852 (1,9,4) 5.08371 (1,9,6) -11.1784 (1,10,5) 20.7516
(1,9,6): (1,8,6) -56.1249 (1,9,5) 11.1784 (1,9,7) 11.1779 (1,10,6) 33.0276
(1,9,7): (1,8,7) -15.6864 (1,9,6) -11.1779 (1,9,8) 5.07952 (1,10,7) 20.7546
(1,9,8): (1,8,8) -4.61232 (1,9,7) -5.07952 (1,9,9) 2.25157 (1,10,8) 6.37999
(1,9,9): (1,8,9) -1.37592 (1,9,8) -2.25157 (1,9,10) 0.806306 (1,10,9) 2.06820
(1,9,10): (1,8,10) -0.487799 (1,9,9) -0.806306 (1,10,10) 0.805990
(1,10,1): (1,9,1) -0.232123 (1,10,2) 0.122856 (1,11,1) 9.242834E-02
(1,10,2): (1,9,2) -0.636364 (1,10,1) -0.122856 (1,10,3) 0.482761 (1,11,2) 0.195842
(1,10,3): (1,9,3) -2.02116 (1,10,2) -0.482761 (1,10,4) 1.94631 (1,11,3) 0.357109
(1,10,4): (1,9,4) -6.36768 (1,10,3) -1.94631 (1,10,5) 8.12465 (1,11,4) -8.584497E-02
(1,10,5): (1,9,5) -20.7516 (1,10,4) -8.12465 (1,10,6) -0.954655 (1,11,5) -5.39541
(1,10,6): (1,9,6) -33.0276 (1,10,5) 0.954655 (1,10,7) 0.956811 (1,11,6) -4.00618
(1,10,7): (1,9,7) -20.7546 (1,10,6) -0.956811 (1,10,8) -8.11926 (1,11,7) -5.39391
(1,10,8): (1,9,8) -6.37999 (1,10,7) 8.11926 (1,10,9) -1.93172 (1,11,8) -7.998460E-02
(1,10,9): (1,9,9) -2.06820 (1,10,8) 1.93172 (1,10,10) -0.442301 (1,11,9) 0.377799
(1,10,10): (1,9,10) -0.805990 (1,10,9) 0.442301 (1,11,10) 0.260607
(1,11,1): (1,10,1) -9.242834E-02 (1,11,2) 0.226300 (1,12,1) -2.977885E-02
(1,11,2): (1,10,2) -0.195842 (1,11,1) -0.226300 (1,11,3) 0.644478 (1,12,2) -8.762080E-02
(1,11,3): (1,10,3) -0.357109 (1,11,2) -0.644478 (1,11,4) 1.49668 (1,12,3) -0.309365
(1,11,4): (1,10,4) 8.584497E-02 (1,11,3) -1.49668 (1,11,5) 2.69542 (1,12,4) -1.02076
(1,11,5): (1,10,5) 5.39541 (1,11,4) -2.69542 (1,11,6) 0.386077 (1,12,5) -2.70886
(1,11,6): (1,10,6) 4.00618 (1,11,5) -0.386077 (1,11,7) -0.382497 (1,12,6) -2.79967
(1,11,7): (1,10,7) 5.39391 (1,11,6) 0.382497 (1,11,8) -2.68574 (1,12,7) -2.70933
(1,11,8): (1,10,8) 7.998460E-02 (1,11,7) 2.68574 (1,11,9) -1.46719 (1,12,8) -1.02244
(1,11,9): (1,10,9) -0.377799 (1,11,8) 1.46719 (1,11,10) -0.559700 (1,12,9) -0.315290
(1,11,10): (1,10,10) -0.260607 (1,11,9) 0.559700 (1,12,10) -0.109159
(1,12,1): (1,11,1) 2.977885E-02 (1,12,2) 0.168379 (1,13,1) -6.306301E-02
(1,12,2): (1,11,2) 8.762080E-02 (1,12,1) -0.168379 (1,12,3) 0.422008 (1,13,2) -0.140779
(1,12,3): (1,11,3) 0.309365 (1,12,2) -0.422008 (1,12,4) 0.782082 (1,13,3) -0.351859
(1,12,4): (1,11,4) 1.02076 (1,12,3) -0.782082 (1,12,5) 1.00753 (1,13,4) -0.787898
(1,12,5): (1,11,5) 2.70886 (1,12,4) -1.00753 (1,12,6) 0.297031 (1,13,5) -1.41600
(1,12,6): (1,11,6) 2.79967 (1,12,5) -0.297031 (1,12,7) -0.293921 (1,13,6) -1.57587
(1,12,7): (1,11,7) 2.70933 (1,12,6) 0.293921 (1,12,8) -0.999199 (1,13,7) -1.41717
(1,12,8): (1,11,8) 1.02244 (1,12,7) 0.999199 (1,12,9) -0.757066 (1,13,8) -0.792208
(1,12,9): (1,11,9) 0.315290 (1,12,8) 0.757066 (1,12,10) -0.353078 (1,13,9) -0.366060
(1,12,10): (1,11,10) 0.109159 (1,12,9) 0.353078 (1,13,10) -0.184105
(1,13,1): (1,12,1) 6.306301E-02 (1,13,2) 9.064161E-02 (1,14,1) -4.725672E-02
(1,13,2): (1,12,2) 0.140779 (1,13,1) -9.064161E-02 (1,13,3) 0.210783 (1,14,2) -9.701508E-02
(1,13,3): (1,12,3) 0.351859 (1,13,2) -0.210783 (1,13,4) 0.346068 (1,14,3) -0.217345
(1,13,4): (1,12,4) 0.787898 (1,13,3) -0.346068 (1,13,5) 0.381836 (1,14,4) -0.425589
(1,13,5): (1,12,5) 1.41600 (1,13,4) -0.381836 (1,13,6) 0.139048 (1,14,5) -0.667603
(1,13,6): (1,12,6) 1.57587 (1,13,5) -0.139048 (1,13,7) -0.137092 (1,14,6) -0.751918
(1,13,7): (1,12,7) 1.41717 (1,13,6) 0.137092 (1,13,8) -0.376697 (1,14,7) -0.668542
(1,13,8): (1,12,8) 0.792208 (1,13,7) 0.376697 (1,13,9) -0.331062 (1,14,8) -0.429041
(1,13,9): (1,12,9) 0.366060 (1,13,8) 0.331062 (1,13,10) -0.171147 (1,14,9) -0.228353
(1,13,10): (1,12,10) 0.184105 (1,13,9) 0.171147 (1,14,10) -0.128758
(1,14,1): (1,13,1) 4.725672E-02 (1,14,2) 4.088640E-02 (1,15,1) -2.205407E-02
(1,14,2): (1,13,2) 9.701508E-02 (1,14,1) -4.088640E-02 (1,14,3) 9.045994E-02 (1,15,2) -4.328149E-02
(1,14,3): (1,13,3) 0.217345 (1,14,2) -9.045994E-02 (1,14,4) 0.137987 (1,15,3) -9.178975E-02
(1,14,4): (1,13,4) 0.425589 (1,14,3) -0.137987 (1,14,5) 0.140494 (1,15,4) -0.168914
(1,14,5): (1,13,5) 0.667603 (1,14,4) -0.140494 (1,14,6) 5.523060E-02 (1,15,5) -0.250409
(1,14,6): (1,13,6) 0.751918 (1,14,5) -5.523060E-02 (1,14,7) -5.421036E-02 (1,15,6) -0.281777
(1,14,7): (1,13,7) 0.668542 (1,14,6) 5.421036E-02 (1,14,8) -0.137876 (1,15,7) -0.250870
(1,14,8): (1,13,8) 0.429041 (1,14,7) 0.137876 (1,14,9) -0.130567 (1,15,8) -0.170588
(1,14,9): (1,13,9) 0.228353 (1,14,8) 0.130567 (1,14,10) -7.160841E-02 (1,15,9) -9.701663E-02
(1,14,10): (1,13,10) 0.128758 (1,14,9) 7.160841E-02 (1,15,10) -5.787521E-02
(1,15,1): (1,14,1) 2.205407E-02 (1,15,2) 1.965948E-02
(1,15,2): (1,14,2) 4.328149E-02 (1,15,1) -1.965948E-02 (1,15,3) 4.195233E-02
(1,15,3): (1,14,3) 9.178975E-02 (1,15,2) -4.195233E-02 (1,15,4) 6.088675E-02
(1,15,4): (1,14,4) 0.168914 (1,15,3) -6.088675E-02 (1,15,5) 5.908682E-02
(1,15,5): (1,14,5) 0.250409 (1,15,4) -5.908682E-02 (1,15,6) 2.393326E-02
(1,15,6): (1,14,6) 0.281777 (1,15,5) -2.393326E-02 (1,15,7) -2.337298E-02
(1,15,7): (1,14,7) 0.250870 (1,15,6) 2.337298E-02 (1,15,8) -5.768389E-02
(1,15,8): (1,14,8) 0.170588 (1,15,7) 5.768389E-02 (1,15,9) -5.702422E-02
(1,15,9): (1,14,9) 9.701663E-02 (1,15,8) 5.702422E-02 (1,15,10) -3.247689E-02
(1,15,10): (1,14,10) 5.787521E-02 (1,15,9) 3.247689E-02

 WEL PACKAGE (WEL-1) FLOW RATES   PERIOD      2   STEP       51
 ----------------------------------------------------------------------------------------
   NUMBER   CELLID                    RATE       NAME                                    
 ----------------------------------------------------------------------------------------
     1      (1,8,6)              -210.33598      WEL                                     
 ----------------------------------------------------------------------------------------




 DRN PACKAGE (DRN-0) FLOW RATES   PERIOD      2   STEP       51
 ----------------------------------------------------------------------------------------
   NUMBER   CELLID                    RATE       NAME                                    
 ----------------------------------------------------------------------------------------
     1      (1,1,1)               0.0000000      SURF                                    
     2      (1,1,2)               0.0000000      SURF                                    
     3      (1,1,3)               0.0000000      SURF                                    
     4      (1,1,4)               0.0000000      SURF                                    
     5      (1,1,5)               0.0000000      SURF                                    
     6      (1,1,6)               0.0000000      SURF                                    
     7      (1,1,7)               0.0000000      SURF                                    
     8      (1,1,8)               0.0000000      SURF                                    
     9      (1,1,9)               0.0000000      SURF                                    
     10     (1,1,10)              0.0000000      SURF                                    
     11     (1,2,1)               0.0000000      SURF                                    
     12     (1,2,2)               0.0000000      SURF                                    
     13     (1,2,3)               0.0000000      SURF                                    
     14     (1,2,4)               0.0000000      SURF                                    
     15     (1,2,5)               0.0000000      SURF                                    
     16     (1,2,6)               0.0000000      SURF                                    
     17     (1,2,7)               0.0000000      SURF                                    
     18     (1,2,8)               0.0000000      SURF                                    
     19     (1,2,9)               0.0000000      SURF                                    
     20     (1,2,10)              0.0000000      SURF                                    
     21     (1,3,1)               0.0000000      SURF                                    
     22     (1,3,2)               0.0000000      SURF                                    
     23     (1,3,3)               0.0000000      SURF                                    
     24     (1,3,4)               0.0000000      SURF                                    
     25     (1,3,5)               0.0000000      SURF                                    
     26     (1,3,6)               0.0000000      SURF                                    
     27     (1,3,7)               0.0000000      SURF                                    
     28     (1,3,8)               0.0000000      SURF                                    
     29     (1,3,9)               0.0000000      SURF                                    
     30     (1,3,10)              0.0000000      SURF                                    
     31     (1,4,1)               0.0000000      SURF                                    
     32     (1,4,2)               0.0000000      SURF                                    
     33     (1,4,3)               0.0000000      SURF                                    
     34     (1,4,4)               0.0000000      SURF                                    
     35     (1,4,5)               0.0000000      SURF                                    
     36     (1,4,6)               0.0000000      SURF                                    
     37     (1,4,7)               0.0000000      SURF                                    
     38     (1,4,8)               0.0000000      SURF                                    
     39     (1,4,9)               0.0000000      SURF                                    
     40     (1,4,10)              0.0000000      SURF                                    
     41     (1,5,1)               0.0000000      SURF                                    
     42     (1,5,2)               0.0000000      SURF                                    
     43     (1,5,3)               0.0000000      SURF                                    
     44     (1,5,4)               0.0000000      SURF                                    
     45     (1,5,5)               0.0000000      SURF                                    
     46     (1,5,6)               0.0000000      SURF                                    
     47     (1,5,7)               0.0000000      SURF                                    
     48     (1,5,8)               0.0000000      SURF                                    
     49     (1,5,9)               0.0000000      SURF                                    
     50     (1,5,10)              0.0000000      SURF                                    
     51     (1,6,1)               0.0000000      SURF                                    
     52     (1,6,2)               0.0000000      SURF                                    
     53     (1,6,3)               0.0000000      SURF                                    
     54     (1,6,4)               0.0000000      SURF                                    
     55     (1,6,5)               0.0000000      SURF                                    
     56     (1,6,6)               0.0000000      SURF                                    
     57     (1,6,7)              -3.48591129E-07 SURF                                    
     58     (1,6,8)               0.0000000      SURF                                    
     59     (1,6,9)               0.0000000      SURF                                    
     60     (1,6,10)              0.0000000      SURF                                    
     61     (1,7,1)               0.0000000      SURF                                    
     62     (1,7,2)               0.0000000      SURF                                    
     63     (1,7,3)               0.0000000      SURF                                    
     64     (1,7,4)               0.0000000      SURF                                    
     65     (1,7,5)               0.0000000      SURF                                    
     66     (1,7,6)               0.0000000      SURF                                    
     67     (1,7,7)               0.0000000      SURF                                    
     68     (1,7,8)               0.0000000      SURF                                    
     69     (1,7,9)               0.0000000      SURF                                    
     70     (1,7,10)              0.0000000      SURF                                    
     71     (1,8,1)               0.0000000      SURF                                    
     72     (1,8,2)               0.0000000      SURF                                    
     73     (1,8,3)               0.0000000      SURF                                    
     74     (1,8,4)               0.0000000      SURF                                    
     75     (1,8,5)               0.0000000      SURF                                    
     76     (1,8,6)               0.0000000      SURF                                    
     77     (1,8,7)               0.0000000      SURF                                    
     78     (1,8,8)               0.0000000      SURF                                    
     79     (1,8,9)               0.0000000      SURF                                    
     80     (1,8,10)              0.0000000      SURF                                    
     81     (1,9,1)               0.0000000      SURF                                    
     82     (1,9,2)               0.0000000      SURF                                    
     83     (1,9,3)               0.0000000      SURF                                    
     84     (1,9,4)               0.0000000      SURF                                    
     85     (1,9,5)               0.0000000      SURF                                    
     86     (1,9,6)               0.0000000      SURF                                    
     87     (1,9,7)               0.0000000      SURF                                    
     88     (1,9,8)               0.0000000      SURF                                    
     89     (1,9,9)               0.0000000      SURF                                    
     90     (1,9,10)              0.0000000      SURF                                    
     91     (1,10,1)              0.0000000      SURF                                    
     92     (1,10,2)              0.0000000      SURF                                    
     93     (1,10,3)              0.0000000      SURF                                    
     94     (1,10,4)              0.0000000      SURF                                    
     95     (1,10,5)              0.0000000      SURF                                    
     96     (1,10,6)              0.0000000      SURF                                    
     97     (1,10,7)              0.0000000      SURF                                    
     98     (1,10,8)              0.0000000      SURF                                    
     99     (1,10,9)              0.0000000      SURF                                    
    100     (1,10,10)             0.0000000      SURF                                    
    101     (1,11,1)              0.0000000      SURF                                    
    102     (1,11,2)              0.0000000      SURF                                    
    103     (1,11,3)              0.0000000      SURF                                    
    104     (1,11,4)              0.0000000      SURF                                    
    105     (1,11,5)              0.0000000      SURF                                    
    106     (1,11,6)              0.0000000      SURF                                    
    107     (1,11,7)              0.0000000      SURF                                    
    108     (1,11,8)              0.0000000      SURF                                    
    109     (1,11,9)              0.0000000      SURF                                    
    110     (1,11,10)             0.0000000      SURF                                    
    111     (1,12,1)              0.0000000      SURF                                    
    112     (1,12,2)              0.0000000      SURF                                    
    113     (1,12,3)              0.0000000      SURF                                    
    114     (1,12,4)              0.0000000      SURF                                    
    115     (1,12,5)              0.0000000      SURF                                    
    116     (1,12,6)              0.0000000      SURF                                    
    117     (1,12,7)              0.0000000      SURF                                    
    118     (1,12,8)              0.0000000      SURF                                    
    119     (1,12,9)              0.0000000      SURF                                    
    120     (1,12,10)             0.0000000      SURF                                    
    121     (1,13,1)              0.0000000      SURF                                    
    122     (1,13,2)              0.0000000      SURF                                    
    123     (1,13,3)              0.0000000      SURF                                    
    124     (1,13,4)              0.0000000      SURF                                    
    125     (1,13,5)              0.0000000      SURF                                    
    126     (1,13,6)              0.0000000      SURF                                    
    127     (1,13,7)              0.0000000      SURF                                    
    128     (1,13,8)              0.0000000      SURF                                    
    129     (1,13,9)              0.0000000      SURF                                    
    130     (1,13,10)             0.0000000      SURF                                    
    131     (1,14,1)              0.0000000      SURF                                    
    132     (1,14,2)              0.0000000      SURF                                    
    133     (1,14,3)              0.0000000      SURF                                    
    134     (1,14,4)              0.0000000      SURF                                    
    135     (1,14,5)              0.0000000      SURF                                    
    136     (1,14,6)              0.0000000      SURF                                    
    137     (1,14,7)              0.0000000      SURF                                    
    138     (1,14,8)              0.0000000      SURF                                    
    139     (1,14,9)              0.0000000      SURF                                    
    140     (1,14,10)             0.0000000      SURF                                    
    141     (1,15,1)              0.0000000      SURF                                    
    142     (1,15,2)              0.0000000      SURF                                    
    143     (1,15,3)              0.0000000      SURF                                    
    144     (1,15,4)              0.0000000      SURF                                    
    145     (1,15,5)              0.0000000      SURF                                    
    146     (1,15,6)              0.0000000      SURF                                    
    147     (1,15,7)              0.0000000      SURF                                    
    148     (1,15,8)              0.0000000      SURF                                    
    149     (1,15,9)              0.0000000      SURF                                    
    150     (1,15,10)             0.0000000      SURF                                    
 ----------------------------------------------------------------------------------------




 API PACKAGE (MAR) FLOW RATES   PERIOD      2   STEP       51
 -----------------------------------------------
   NUMBER   CELLID                    RATE      
 -----------------------------------------------
     1      (1,6,5)               35.137217     
     2      (1,6,6)               35.137217     
     3      (1,6,7)               35.137217     
     4      (1,10,5)              34.974775     
     5      (1,10,6)              34.974775     
     6      (1,10,7)              34.974775     
 -----------------------------------------------



1
  HEAD IN LAYER   1 AT END OF TIME STEP  51 IN STRESS PERIOD    2
  ---------------------------------------------------------------------------

            1           2           3           4           5           6           7           8           9          10
 ........................................................................................................................
   1   3.2307E-03  5.6279E-03  1.0616E-02  1.7659E-02  2.4356E-02  2.7064E-02  2.4441E-02  1.7943E-02  1.1421E-02  7.6458E-03
   2   5.9495E-03  1.0709E-02  2.0955E-02  3.6129E-02  5.1248E-02  5.7189E-02  5.1396E-02  3.6635E-02  2.2417E-02  1.4478E-02
   3   1.1632E-02  2.1766E-02  4.4642E-02  8.1028E-02  0.1202      0.1345      0.1205      8.1978E-02  4.7454E-02  2.9240E-02
   4   1.9047E-02  3.7299E-02  8.1538E-02  0.1607      0.2600      0.2892      0.2604      0.1622      8.6047E-02  4.9686E-02
   5   2.2716E-02  4.6797E-02  0.1127      0.2597      0.5151      0.5513      0.5156      0.2614      0.1180      6.1670E-02
   6   1.3182E-02  2.6670E-02  7.5889E-02  0.2647      0.9997      0.9115       1.000      0.2658      7.9057E-02  3.4925E-02
   7  -1.1488E-02 -3.8800E-02 -0.1273     -0.3579     -0.8873      -2.115     -0.8872     -0.3581     -0.1291     -4.8226E-02
   8  -2.6884E-02 -8.1105E-02 -0.2681     -0.8393      -2.610      -9.234      -2.611     -0.8404     -0.2731     -0.1016    
   9  -1.3836E-02 -4.1886E-02 -0.1312     -0.3614     -0.8888      -2.116     -0.8889     -0.3619     -0.1337     -5.2603E-02
  10   9.3541E-03  2.1613E-02  6.9556E-02  0.2593      0.9980      0.9112      0.9982      0.2600      7.1688E-02  2.7772E-02
  11   1.8580E-02  4.1117E-02  0.1049      0.2509      0.5074      0.5440      0.5078      0.2522      0.1091      5.3694E-02
  12   1.5607E-02  3.2391E-02  7.4281E-02  0.1513      0.2496      0.2785      0.2499      0.1524      7.7871E-02  4.2836E-02
  13   9.3110E-03  1.8359E-02  3.9354E-02  7.3708E-02  0.1115      0.1252      0.1117      7.4410E-02  4.1548E-02  2.4504E-02
  14   4.5897E-03  8.6748E-03  1.7705E-02  3.1460E-02  4.5446E-02  5.0941E-02  4.5548E-02  3.1823E-02  1.8807E-02  1.1660E-02
  15   2.3853E-03  4.3504E-03  8.5421E-03  1.4622E-02  2.0518E-02  2.2906E-02  2.0574E-02  1.4818E-02  9.1238E-03  5.8791E-03

 HEAD WILL BE SAVED ON UNIT 1100 AT END OF TIME STEP   51, STRESS PERIOD    2


  VOLUME BUDGET FOR ENTIRE MODEL AT END OF TIME STEP   51, STRESS PERIOD   2
  ---------------------------------------------------------------------------------------------------

     CUMULATIVE VOLUME      L**3       RATES FOR THIS TIME STEP      L**3/T          PACKAGE NAME    
     ------------------                 ------------------------                     ----------------

           IN:                                      IN:
           ---                                      ---
              STO-SS =          21.7682                STO-SS =       1.2600E-02     STORAGE                          
              STO-SY =       54803.9785                STO-SY =          27.1434     STORAGE                          
                 WEL =           0.0000                   WEL =           0.0000     WEL-1                            
                 DRN =           0.0000                   DRN =           0.0000     DRN-0                            
                 API =      103459.3870                   API =         210.3360     MAR                              
                 CHD =       2.0279E-08                   CHD =           0.0000     CHD_0                            

            TOTAL IN =      158285.1337              TOTAL IN =         237.4919

          OUT:                                     OUT:
          ----                                     ----
              STO-SS =          18.0757                STO-SS =       1.3760E-02     STORAGE                          
              STO-SY =       35238.8646                STO-SY =          27.1422     STORAGE                          
                 WEL =      123028.1932                   WEL =         210.3360     WEL-1                            
                 DRN =       1.7128E-04                   DRN =       3.4859E-07     DRN-0                            
                 API =           0.0000                   API =           0.0000     MAR                              
                 CHD =       2.0705E-08                   CHD =           0.0000     CHD_0                            

           TOTAL OUT =      158285.1337             TOTAL OUT =         237.4919

            IN - OUT =      -1.2589E-06              IN - OUT =       9.4533E-10

 PERCENT DISCREPANCY =          -0.00     PERCENT DISCREPANCY =           0.00




         TIME SUMMARY AT END OF TIME STEP   51 IN STRESS PERIOD    2
                    SECONDS     MINUTES      HOURS       DAYS        YEARS
                    -----------------------------------------------------------
   TIME STEP LENGTH 8.64000E+05  14400.      240.00      10.000     2.73785E-02
 STRESS PERIOD TIME 4.40640E+07 7.34400E+05  12240.      510.00      1.3963    
         TOTAL TIME 4.41504E+07 7.35840E+05  12264.      511.00      1.3990    


end timestep


start timestep kper="2" kstp="52" mode="normal"

 UBDSV1 SAVING           STO-SS ON UNIT   1099 AT TIME STEP     52, STRESS PERIOD      2
 UBDSV1 SAVING           STO-SY ON UNIT   1099 AT TIME STEP     52, STRESS PERIOD      2
 UBDSV1 SAVING     FLOW-JA-FACE ON UNIT   1099 AT TIME STEP     52, STRESS PERIOD      2
 UBDSV06 SAVING       DATA-SPDIS IN MODEL GWF              PACKAGE NPF             CONNECTED TO MODEL GWF              PACKAGE NPF              ON UNIT   1099 AT TIME STEP     52, STRESS PERIOD      2
 UBDSV06 SAVING              WEL IN MODEL GWF              PACKAGE GWF             CONNECTED TO MODEL GWF              PACKAGE WEL-1            ON UNIT   1099 AT TIME STEP     52, STRESS PERIOD      2
 UBDSV06 SAVING              DRN IN MODEL GWF              PACKAGE GWF             CONNECTED TO MODEL GWF              PACKAGE DRN-0            ON UNIT   1099 AT TIME STEP     52, STRESS PERIOD      2
 UBDSV06 SAVING              API IN MODEL GWF              PACKAGE GWF             CONNECTED TO MODEL GWF              PACKAGE MAR              ON UNIT   1099 AT TIME STEP     52, STRESS PERIOD      2
 UBDSV06 SAVING              CHD IN MODEL GWF              PACKAGE GWF             CONNECTED TO MODEL GWF              PACKAGE CHD_0            ON UNIT   1099 AT TIME STEP     52, STRESS PERIOD      2

    CALCULATED INTERCELL FLOW FOR PERIOD 2 STEP 52
(1,1,1): (1,1,2) 2.528578E-02 (1,2,1) 2.851269E-02
(1,1,2): (1,1,1) -2.528578E-02 (1,1,3) 5.233235E-02 (1,2,2) 5.275032E-02
(1,1,3): (1,1,2) -5.233235E-02 (1,1,4) 7.346096E-02 (1,2,3) 0.106530
(1,1,4): (1,1,3) -7.346096E-02 (1,1,5) 6.956813E-02 (1,2,4) 0.189522
(1,1,5): (1,1,4) -6.956813E-02 (1,1,6) 2.812121E-02 (1,2,5) 0.275453
(1,1,6): (1,1,5) -2.812121E-02 (1,1,7) -2.717320E-02 (1,2,6) 0.308525
(1,1,7): (1,1,6) 2.717320E-02 (1,1,8) -6.737217E-02 (1,2,7) 0.276147
(1,1,8): (1,1,7) 6.737217E-02 (1,1,9) -6.782635E-02 (1,2,8) 0.191900
(1,1,9): (1,1,8) 6.782635E-02 (1,1,10) -3.937391E-02 (1,2,9) 0.113492
(1,1,10): (1,1,9) 3.937391E-02 (1,2,10) 7.104693E-02
(1,2,1): (1,1,1) -2.851269E-02 (1,2,2) 4.952263E-02 (1,3,1) 5.893701E-02
(1,2,2): (1,1,2) -5.275032E-02 (1,2,1) -4.952263E-02 (1,2,3) 0.106111 (1,3,2) 0.113652
(1,2,3): (1,1,3) -0.106530 (1,2,2) -0.106111 (1,2,4) 0.156426 (1,3,3) 0.242142
(1,2,4): (1,1,4) -0.189522 (1,2,3) -0.156426 (1,2,5) 0.155398 (1,3,4) 0.458451
(1,2,5): (1,1,5) -0.275453 (1,2,4) -0.155398 (1,2,6) 6.111310E-02 (1,3,5) 0.705544
(1,2,6): (1,1,6) -0.308525 (1,2,5) -6.111310E-02 (1,2,7) -5.947219E-02 (1,3,6) 0.791694
(1,2,7): (1,1,7) -0.276147 (1,2,6) 5.947219E-02 (1,2,8) -0.151516 (1,3,7) 0.706924
(1,2,8): (1,1,8) -0.191900 (1,2,7) 0.151516 (1,2,9) -0.146199 (1,3,8) 0.463211
(1,2,9): (1,1,9) -0.113492 (1,2,8) 0.146199 (1,2,10) -8.180516E-02 (1,3,9) 0.256321
(1,2,10): (1,1,10) -7.104693E-02 (1,2,9) 8.180516E-02 (1,3,10) 0.152008
(1,3,1): (1,2,1) -5.893701E-02 (1,3,2) 0.104232 (1,4,1) 7.551654E-02
(1,3,2): (1,2,2) -0.113652 (1,3,1) -0.104232 (1,3,3) 0.234593 (1,4,2) 0.157190
(1,3,3): (1,2,3) -0.242142 (1,3,2) -0.234593 (1,3,4) 0.372552 (1,4,3) 0.373255
(1,3,4): (1,2,4) -0.458451 (1,3,3) -0.372552 (1,3,5) 0.401764 (1,4,4) 0.810927
(1,3,5): (1,2,5) -0.705544 (1,3,4) -0.401764 (1,3,6) 0.146729 (1,4,5) 1.43614
(1,3,6): (1,2,6) -0.791694 (1,3,5) -0.146729 (1,3,7) -0.143714 (1,4,6) 1.59464
(1,3,7): (1,2,7) -0.706924 (1,3,6) 0.143714 (1,3,8) -0.394490 (1,4,7) 1.43782
(1,3,8): (1,2,8) -0.463211 (1,3,7) 0.394490 (1,3,9) -0.352866 (1,4,8) 0.816718
(1,3,9): (1,2,9) -0.256321 (1,3,8) 0.352866 (1,3,10) -0.186046 (1,4,9) 0.390910
(1,3,10): (1,2,10) -0.152008 (1,3,9) 0.186046 (1,4,10) 0.207319
(1,4,1): (1,3,1) -7.551654E-02 (1,4,2) 0.185929 (1,5,1) 3.481256E-02
(1,4,2): (1,3,2) -0.157190 (1,4,1) -0.185929 (1,4,3) 0.450821 (1,5,2) 9.147082E-02
(1,4,3): (1,3,3) -0.373255 (1,4,2) -0.450821 (1,4,4) 0.810222 (1,5,3) 0.307523
(1,4,4): (1,3,4) -0.810927 (1,4,3) -0.810222 (1,4,5) 1.02456 (1,5,4) 1.00499
(1,4,5): (1,3,5) -1.43614 (1,4,4) -1.02456 (1,4,6) 0.303349 (1,5,5) 2.67330
(1,4,6): (1,3,6) -1.59464 (1,4,5) -0.303349 (1,4,7) -0.298668 (1,5,6) 2.75716
(1,4,7): (1,3,7) -1.43782 (1,4,6) 0.298668 (1,4,8) -1.01312 (1,5,7) 2.67408
(1,4,8): (1,3,8) -0.816718 (1,4,7) 1.01312 (1,4,9) -0.778517 (1,5,8) 1.00742
(1,4,9): (1,3,9) -0.390910 (1,4,8) 0.778517 (1,4,10) -0.369599 (1,5,9) 0.314975
(1,4,10): (1,3,10) -0.207319 (1,4,9) 0.369599 (1,5,10) 0.115208
(1,5,1): (1,4,1) -3.481256E-02 (1,5,2) 0.242672 (1,6,1) -0.101964
(1,5,2): (1,4,2) -9.147082E-02 (1,5,1) -0.242672 (1,5,3) 0.667632 (1,6,2) -0.213248
(1,5,3): (1,4,3) -0.307523 (1,5,2) -0.667632 (1,5,4) 1.51102 (1,6,3) -0.391331
(1,5,4): (1,4,4) -1.00499 (1,5,3) -1.51102 (1,5,5) 2.69317 (1,6,4) 2.654986E-02
(1,5,5): (1,4,5) -2.67330 (1,5,4) -2.69317 (1,5,6) 0.385621 (1,6,5) 5.31168
(1,5,6): (1,4,6) -2.75716 (1,5,5) -0.385621 (1,5,7) -0.380169 (1,6,6) 3.91583
(1,5,7): (1,4,7) -2.67408 (1,5,6) 0.380169 (1,5,8) -2.67986 (1,6,7) 5.30997
(1,5,8): (1,4,8) -1.00742 (1,5,7) 2.67986 (1,5,9) -1.47401 (1,6,8) 1.982810E-02
(1,5,9): (1,4,9) -0.314975 (1,5,8) 1.47401 (1,5,10) -0.569861 (1,6,9) -0.414439
(1,5,10): (1,4,10) -0.115208 (1,5,9) 0.569861 (1,6,10) -0.284206
(1,6,1): (1,5,1) 0.101964 (1,6,2) 0.131356 (1,7,1) -0.255164
(1,6,2): (1,5,2) 0.213248 (1,6,1) -0.131356 (1,6,3) 0.489072 (1,7,2) -0.670166
(1,6,3): (1,5,3) 0.391331 (1,6,2) -0.489072 (1,6,4) 1.93508 (1,7,3) -2.07148
(1,6,4): (1,5,4) -2.654986E-02 (1,6,3) -1.93508 (1,6,5) 8.10006 (1,7,4) -6.42794
(1,6,5): (1,5,5) -5.31168 (1,6,4) -8.10006 (1,6,6) -0.962521 (1,7,5) -20.8090
(1,6,6): (1,5,6) -3.91583 (1,6,5) 0.962521 (1,6,7) 0.966359 (1,7,6) -33.0704
(1,6,7): (1,5,7) -5.30997 (1,6,6) -0.966359 (1,6,8) -8.09158 (1,7,7) -20.8130
(1,6,8): (1,5,8) -1.982810E-02 (1,6,7) 8.09158 (1,6,9) -1.91452 (1,7,8) -6.44276
(1,6,9): (1,5,9) 0.414439 (1,6,8) 1.91452 (1,6,10) -0.439432 (1,7,9) -2.12471
(1,6,10): (1,5,10) 0.284206 (1,6,9) 0.439432 (1,7,10) -0.853176
(1,7,1): (1,6,1) 0.255164 (1,7,2) -0.282222 (1,8,1) -0.157574
(1,7,2): (1,6,2) 0.670166 (1,7,1) 0.282222 (1,7,3) -0.898588 (1,8,2) -0.427546
(1,7,3): (1,6,3) 2.07148 (1,7,2) 0.898588 (1,7,4) -2.29111 (1,8,3) -1.40011
(1,7,4): (1,6,4) 6.42794 (1,7,3) 2.29111 (1,7,5) -5.09881 (1,8,4) -4.65519
(1,7,5): (1,6,5) 20.8090 (1,7,4) 5.09881 (1,7,6) -11.1692 (1,8,5) -15.7070
(1,7,6): (1,6,6) 33.0704 (1,7,5) 11.1692 (1,7,7) 11.1696 (1,8,6) -56.0908
(1,7,7): (1,6,7) 20.8130 (1,7,6) -11.1696 (1,7,8) 5.09607 (1,8,7) -15.7094
(1,7,8): (1,6,8) 6.44276 (1,7,7) -5.09607 (1,7,9) 2.27269 (1,8,8) -4.66416
(1,7,9): (1,6,9) 2.12471 (1,7,8) -2.27269 (1,7,10) 0.817820 (1,8,9) -1.43236
(1,7,10): (1,6,10) 0.853176 (1,7,9) -0.817820 (1,8,10) -0.539957
(1,8,1): (1,7,1) 0.157574 (1,8,2) -0.552532 (1,9,1) 0.134163
(1,8,2): (1,7,2) 0.427546 (1,8,1) 0.552532 (1,8,3) -1.87583 (1,9,2) 0.397203
(1,8,3): (1,7,3) 1.40011 (1,8,2) 1.87583 (1,8,4) -5.57699 (1,9,3) 1.36249
(1,8,4): (1,7,4) 4.65519 (1,8,3) 5.57699 (1,8,5) -16.2078 (1,9,4) 4.62067
(1,8,5): (1,7,5) 15.7070 (1,8,4) 16.2078 (1,8,6) -48.8664 (1,9,5) 15.6893
(1,8,6): (1,7,6) 56.0908 (1,8,5) 48.8664 (1,8,7) 48.8634 (1,9,6) 56.0783
(1,8,7): (1,7,7) 15.7094 (1,8,6) -48.8634 (1,8,8) 16.1969 (1,9,7) 15.6906
(1,8,8): (1,7,8) 4.66416 (1,8,7) -16.1969 (1,8,9) 5.53334 (1,9,8) 4.62682
(1,8,9): (1,7,9) 1.43236 (1,8,8) -5.53334 (1,8,10) 1.71276 (1,9,9) 1.38824
(1,8,10): (1,7,10) 0.539957 (1,8,9) -1.71276 (1,9,10) 0.496896
(1,9,1): (1,8,1) -0.134163 (1,9,2) -0.289082 (1,10,1) 0.240179
(1,9,2): (1,8,2) -0.397203 (1,9,1) 0.289082 (1,9,3) -0.905530 (1,10,2) 0.650210
(1,9,3): (1,8,3) -1.36249 (1,9,2) 0.905530 (1,9,4) -2.28681 (1,10,3) 2.04580
(1,9,4): (1,8,4) -4.62067 (1,9,3) 2.28681 (1,9,5) -5.07994 (1,10,4) 6.40394
(1,9,5): (1,8,5) -15.6893 (1,9,4) 5.07994 (1,9,6) -11.1599 (1,10,5) 20.7824
(1,9,6): (1,8,6) -56.0783 (1,9,5) 11.1599 (1,9,7) 11.1592 (1,10,6) 33.0474
(1,9,7): (1,8,7) -15.6906 (1,9,6) -11.1592 (1,9,8) 5.07531 (1,10,7) 20.7856
(1,9,8): (1,8,8) -4.62682 (1,9,7) -5.07531 (1,9,9) 2.26458 (1,10,8) 6.41693
(1,9,9): (1,8,9) -1.38824 (1,9,8) -2.26458 (1,9,10) 0.818485 (1,10,9) 2.09483
(1,9,10): (1,8,10) -0.496896 (1,9,9) -0.818485 (1,10,10) 0.824909
(1,10,1): (1,9,1) -0.240179 (1,10,2) 0.119622 (1,11,1) 9.859133E-02
(1,10,2): (1,9,2) -0.650210 (1,10,1) -0.119622 (1,10,3) 0.476776 (1,11,2) 0.206635
(1,10,3): (1,9,3) -2.04580 (1,10,2) -0.476776 (1,10,4) 1.94189 (1,11,3) 0.376294
(1,10,4): (1,9,4) -6.40394 (1,10,3) -1.94189 (1,10,5) 8.11898 (1,11,4) -5.848848E-02
(1,10,5): (1,9,5) -20.7824 (1,10,4) -8.11898 (1,10,6) -0.949476 (1,11,5) -5.35550
(1,10,6): (1,9,6) -33.0474 (1,10,5) 0.949476 (1,10,7) 0.951717 (1,11,6) -3.96875
(1,10,7): (1,9,7) -20.7856 (1,10,6) -0.951717 (1,10,8) -8.11356 (1,11,7) -5.35386
(1,10,8): (1,9,8) -6.41693 (1,10,7) 8.11356 (1,10,9) -1.92753 (1,11,8) -5.211830E-02
(1,10,9): (1,9,9) -2.09483 (1,10,8) 1.92753 (1,10,10) -0.437512 (1,11,9) 0.398510
(1,10,10): (1,9,10) -0.824909 (1,10,9) 0.437512 (1,11,10) 0.275357
(1,11,1): (1,10,1) -9.859133E-02 (1,11,2) 0.227689 (1,12,1) -2.806897E-02
(1,11,2): (1,10,2) -0.206635 (1,11,1) -0.227689 (1,11,3) 0.646880 (1,12,2) -8.414052E-02
(1,11,3): (1,10,3) -0.376294 (1,11,2) -0.646880 (1,11,4) 1.50061 (1,12,3) -0.302569
(1,11,4): (1,10,4) 5.848848E-02 (1,11,3) -1.50061 (1,11,5) 2.70100 (1,12,4) -1.01080
(1,11,5): (1,10,5) 5.35550 (1,11,4) -2.70100 (1,11,6) 0.389256 (1,12,5) -2.69786
(1,11,6): (1,10,6) 3.96875 (1,11,5) -0.389256 (1,11,7) -0.385454 (1,12,6) -2.78923
(1,11,7): (1,10,7) 5.35386 (1,11,6) 0.385454 (1,11,8) -2.69090 (1,12,7) -2.69831
(1,11,8): (1,10,8) 5.211830E-02 (1,11,7) 2.69090 (1,11,9) -1.47032 (1,12,8) -1.01237
(1,11,9): (1,10,9) -0.398510 (1,11,8) 1.47032 (1,11,10) -0.560858 (1,12,9) -0.308099
(1,11,10): (1,10,10) -0.275357 (1,11,9) 0.560858 (1,12,10) -0.104462
(1,12,1): (1,11,1) 2.806897E-02 (1,12,2) 0.171538 (1,13,1) -6.439840E-02
(1,12,2): (1,11,2) 8.414052E-02 (1,12,1) -0.171538 (1,12,3) 0.427716 (1,13,2) -0.142442
(1,12,3): (1,11,3) 0.302569 (1,12,2) -0.427716 (1,12,4) 0.789101 (1,13,3) -0.354006
(1,12,4): (1,11,4) 1.01080 (1,12,3) -0.789101 (1,12,5) 1.01390 (1,13,4) -0.790696
(1,12,5): (1,11,5) 2.69786 (1,12,4) -1.01390 (1,12,6) 0.299652 (1,13,5) -1.41978
(1,12,6): (1,11,6) 2.78923 (1,12,5) -0.299652 (1,12,7) -0.296300 (1,13,6) -1.58016
(1,12,7): (1,11,7) 2.69831 (1,12,6) 0.296300 (1,12,8) -1.00507 (1,13,7) -1.42101
(1,12,8): (1,11,8) 1.01237 (1,12,7) 1.00507 (1,12,9) -0.762996 (1,13,8) -0.795176
(1,12,9): (1,11,9) 0.308099 (1,12,8) 0.762996 (1,12,10) -0.356719 (1,13,9) -0.368584
(1,12,10): (1,11,10) 0.104462 (1,12,9) 0.356719 (1,13,10) -0.186465
(1,13,1): (1,12,1) 6.439840E-02 (1,13,2) 9.347190E-02 (1,14,1) -4.925476E-02
(1,13,2): (1,12,2) 0.142442 (1,13,1) -9.347190E-02 (1,13,3) 0.215999 (1,14,2) -9.997630E-02
(1,13,3): (1,12,3) 0.354006 (1,13,2) -0.215999 (1,13,4) 0.352417 (1,14,3) -0.222035
(1,13,4): (1,12,4) 0.790696 (1,13,3) -0.352417 (1,13,5) 0.387210 (1,14,4) -0.432338
(1,13,5): (1,12,5) 1.41978 (1,13,4) -0.387210 (1,13,6) 0.141170 (1,14,5) -0.676111
(1,13,6): (1,12,6) 1.58016 (1,13,5) -0.141170 (1,13,7) -0.139032 (1,14,6) -0.761121
(1,13,7): (1,12,7) 1.42101 (1,13,6) 0.139032 (1,13,8) -0.381689 (1,14,7) -0.677121
(1,13,8): (1,12,8) 0.795176 (1,13,7) 0.381689 (1,13,9) -0.336537 (1,14,8) -0.436005
(1,13,9): (1,12,9) 0.368584 (1,13,8) 0.336537 (1,13,10) -0.174621 (1,14,9) -0.233577
(1,13,10): (1,12,10) 0.186465 (1,13,9) 0.174621 (1,14,10) -0.132873
(1,14,1): (1,13,1) 4.925476E-02 (1,14,2) 4.275364E-02 (1,15,1) -2.328301E-02
(1,14,2): (1,13,2) 9.997630E-02 (1,14,1) -4.275364E-02 (1,14,3) 9.394736E-02 (1,15,2) -4.515877E-02
(1,14,3): (1,13,3) 0.222035 (1,14,2) -9.394736E-02 (1,14,4) 0.142279 (1,15,3) -9.485976E-02
(1,14,4): (1,13,4) 0.432338 (1,14,3) -0.142279 (1,14,5) 0.144121 (1,15,4) -0.173426
(1,14,5): (1,13,5) 0.676111 (1,14,4) -0.144121 (1,14,6) 5.666828E-02 (1,15,5) -0.256125
(1,14,6): (1,13,6) 0.761121 (1,14,5) -5.666828E-02 (1,14,7) -5.553570E-02 (1,15,6) -0.287964
(1,14,7): (1,13,7) 0.677121 (1,14,6) 5.553570E-02 (1,14,8) -0.141264 (1,15,7) -0.256627
(1,14,8): (1,13,8) 0.436005 (1,14,7) 0.141264 (1,14,9) -0.134307 (1,15,8) -0.175228
(1,14,9): (1,13,9) 0.233577 (1,14,8) 0.134307 (1,14,10) -7.397496E-02 (1,15,9) -0.100412
(1,14,10): (1,13,10) 0.132873 (1,14,9) 7.397496E-02 (1,15,10) -6.047396E-02
(1,15,1): (1,14,1) 2.328301E-02 (1,15,2) 2.087841E-02
(1,15,2): (1,14,2) 4.515877E-02 (1,15,1) -2.087841E-02 (1,15,3) 4.424682E-02
(1,15,3): (1,14,3) 9.485976E-02 (1,15,2) -4.424682E-02 (1,15,4) 6.373746E-02
(1,15,4): (1,14,4) 0.173426 (1,15,3) -6.373746E-02 (1,15,5) 6.151295E-02
(1,15,5): (1,14,5) 0.256125 (1,15,4) -6.151295E-02 (1,15,6) 2.490185E-02
(1,15,6): (1,14,6) 0.287964 (1,15,5) -2.490185E-02 (1,15,7) -2.427011E-02
(1,15,7): (1,14,7) 0.256627 (1,15,6) 2.427011E-02 (1,15,8) -5.995775E-02
(1,15,8): (1,14,8) 0.175228 (1,15,7) 5.995775E-02 (1,15,9) -5.952087E-02
(1,15,9): (1,14,9) 0.100412 (1,15,8) 5.952087E-02 (1,15,10) -3.404782E-02
(1,15,10): (1,14,10) 6.047396E-02 (1,15,9) 3.404782E-02

 WEL PACKAGE (WEL-1) FLOW RATES   PERIOD      2   STEP       52
 ----------------------------------------------------------------------------------------
   NUMBER   CELLID                    RATE       NAME                                    
 ----------------------------------------------------------------------------------------
     1      (1,8,6)              -210.06973      WEL                                     
 ----------------------------------------------------------------------------------------




 DRN PACKAGE (DRN-0) FLOW RATES   PERIOD      2   STEP       52
 ----------------------------------------------------------------------------------------
   NUMBER   CELLID                    RATE       NAME                                    
 ----------------------------------------------------------------------------------------
     1      (1,1,1)               0.0000000      SURF                                    
     2      (1,1,2)               0.0000000      SURF                                    
     3      (1,1,3)               0.0000000      SURF                                    
     4      (1,1,4)               0.0000000      SURF                                    
     5      (1,1,5)               0.0000000      SURF                                    
     6      (1,1,6)               0.0000000      SURF                                    
     7      (1,1,7)               0.0000000      SURF                                    
     8      (1,1,8)               0.0000000      SURF                                    
     9      (1,1,9)               0.0000000      SURF                                    
     10     (1,1,10)              0.0000000      SURF                                    
     11     (1,2,1)               0.0000000      SURF                                    
     12     (1,2,2)               0.0000000      SURF                                    
     13     (1,2,3)               0.0000000      SURF                                    
     14     (1,2,4)               0.0000000      SURF                                    
     15     (1,2,5)               0.0000000      SURF                                    
     16     (1,2,6)               0.0000000      SURF                                    
     17     (1,2,7)               0.0000000      SURF                                    
     18     (1,2,8)               0.0000000      SURF                                    
     19     (1,2,9)               0.0000000      SURF                                    
     20     (1,2,10)              0.0000000      SURF                                    
     21     (1,3,1)               0.0000000      SURF                                    
     22     (1,3,2)               0.0000000      SURF                                    
     23     (1,3,3)               0.0000000      SURF                                    
     24     (1,3,4)               0.0000000      SURF                                    
     25     (1,3,5)               0.0000000      SURF                                    
     26     (1,3,6)               0.0000000      SURF                                    
     27     (1,3,7)               0.0000000      SURF                                    
     28     (1,3,8)               0.0000000      SURF                                    
     29     (1,3,9)               0.0000000      SURF                                    
     30     (1,3,10)              0.0000000      SURF                                    
     31     (1,4,1)               0.0000000      SURF                                    
     32     (1,4,2)               0.0000000      SURF                                    
     33     (1,4,3)               0.0000000      SURF                                    
     34     (1,4,4)               0.0000000      SURF                                    
     35     (1,4,5)               0.0000000      SURF                                    
     36     (1,4,6)               0.0000000      SURF                                    
     37     (1,4,7)               0.0000000      SURF                                    
     38     (1,4,8)               0.0000000      SURF                                    
     39     (1,4,9)               0.0000000      SURF                                    
     40     (1,4,10)              0.0000000      SURF                                    
     41     (1,5,1)               0.0000000      SURF                                    
     42     (1,5,2)               0.0000000      SURF                                    
     43     (1,5,3)               0.0000000      SURF                                    
     44     (1,5,4)               0.0000000      SURF                                    
     45     (1,5,5)               0.0000000      SURF                                    
     46     (1,5,6)               0.0000000      SURF                                    
     47     (1,5,7)               0.0000000      SURF                                    
     48     (1,5,8)               0.0000000      SURF                                    
     49     (1,5,9)               0.0000000      SURF                                    
     50     (1,5,10)              0.0000000      SURF                                    
     51     (1,6,1)               0.0000000      SURF                                    
     52     (1,6,2)               0.0000000      SURF                                    
     53     (1,6,3)               0.0000000      SURF                                    
     54     (1,6,4)               0.0000000      SURF                                    
     55     (1,6,5)               0.0000000      SURF                                    
     56     (1,6,6)               0.0000000      SURF                                    
     57     (1,6,7)              -3.46903107E-07 SURF                                    
     58     (1,6,8)               0.0000000      SURF                                    
     59     (1,6,9)               0.0000000      SURF                                    
     60     (1,6,10)              0.0000000      SURF                                    
     61     (1,7,1)               0.0000000      SURF                                    
     62     (1,7,2)               0.0000000      SURF                                    
     63     (1,7,3)               0.0000000      SURF                                    
     64     (1,7,4)               0.0000000      SURF                                    
     65     (1,7,5)               0.0000000      SURF                                    
     66     (1,7,6)               0.0000000      SURF                                    
     67     (1,7,7)               0.0000000      SURF                                    
     68     (1,7,8)               0.0000000      SURF                                    
     69     (1,7,9)               0.0000000      SURF                                    
     70     (1,7,10)              0.0000000      SURF                                    
     71     (1,8,1)               0.0000000      SURF                                    
     72     (1,8,2)               0.0000000      SURF                                    
     73     (1,8,3)               0.0000000      SURF                                    
     74     (1,8,4)               0.0000000      SURF                                    
     75     (1,8,5)               0.0000000      SURF                                    
     76     (1,8,6)               0.0000000      SURF                                    
     77     (1,8,7)               0.0000000      SURF                                    
     78     (1,8,8)               0.0000000      SURF                                    
     79     (1,8,9)               0.0000000      SURF                                    
     80     (1,8,10)              0.0000000      SURF                                    
     81     (1,9,1)               0.0000000      SURF                                    
     82     (1,9,2)               0.0000000      SURF                                    
     83     (1,9,3)               0.0000000      SURF                                    
     84     (1,9,4)               0.0000000      SURF                                    
     85     (1,9,5)               0.0000000      SURF                                    
     86     (1,9,6)               0.0000000      SURF                                    
     87     (1,9,7)               0.0000000      SURF                                    
     88     (1,9,8)               0.0000000      SURF                                    
     89     (1,9,9)               0.0000000      SURF                                    
     90     (1,9,10)              0.0000000      SURF                                    
     91     (1,10,1)              0.0000000      SURF                                    
     92     (1,10,2)              0.0000000      SURF                                    
     93     (1,10,3)              0.0000000      SURF                                    
     94     (1,10,4)              0.0000000      SURF                                    
     95     (1,10,5)              0.0000000      SURF                                    
     96     (1,10,6)              0.0000000      SURF                                    
     97     (1,10,7)              0.0000000      SURF                                    
     98     (1,10,8)              0.0000000      SURF                                    
     99     (1,10,9)              0.0000000      SURF                                    
    100     (1,10,10)             0.0000000      SURF                                    
    101     (1,11,1)              0.0000000      SURF                                    
    102     (1,11,2)              0.0000000      SURF                                    
    103     (1,11,3)              0.0000000      SURF                                    
    104     (1,11,4)              0.0000000      SURF                                    
    105     (1,11,5)              0.0000000      SURF                                    
    106     (1,11,6)              0.0000000      SURF                                    
    107     (1,11,7)              0.0000000      SURF                                    
    108     (1,11,8)              0.0000000      SURF                                    
    109     (1,11,9)              0.0000000      SURF                                    
    110     (1,11,10)             0.0000000      SURF                                    
    111     (1,12,1)              0.0000000      SURF                                    
    112     (1,12,2)              0.0000000      SURF                                    
    113     (1,12,3)              0.0000000      SURF                                    
    114     (1,12,4)              0.0000000      SURF                                    
    115     (1,12,5)              0.0000000      SURF                                    
    116     (1,12,6)              0.0000000      SURF                                    
    117     (1,12,7)              0.0000000      SURF                                    
    118     (1,12,8)              0.0000000      SURF                                    
    119     (1,12,9)              0.0000000      SURF                                    
    120     (1,12,10)             0.0000000      SURF                                    
    121     (1,13,1)              0.0000000      SURF                                    
    122     (1,13,2)              0.0000000      SURF                                    
    123     (1,13,3)              0.0000000      SURF                                    
    124     (1,13,4)              0.0000000      SURF                                    
    125     (1,13,5)              0.0000000      SURF                                    
    126     (1,13,6)              0.0000000      SURF                                    
    127     (1,13,7)              0.0000000      SURF                                    
    128     (1,13,8)              0.0000000      SURF                                    
    129     (1,13,9)              0.0000000      SURF                                    
    130     (1,13,10)             0.0000000      SURF                                    
    131     (1,14,1)              0.0000000      SURF                                    
    132     (1,14,2)              0.0000000      SURF                                    
    133     (1,14,3)              0.0000000      SURF                                    
    134     (1,14,4)              0.0000000      SURF                                    
    135     (1,14,5)              0.0000000      SURF                                    
    136     (1,14,6)              0.0000000      SURF                                    
    137     (1,14,7)              0.0000000      SURF                                    
    138     (1,14,8)              0.0000000      SURF                                    
    139     (1,14,9)              0.0000000      SURF                                    
    140     (1,14,10)             0.0000000      SURF                                    
    141     (1,15,1)              0.0000000      SURF                                    
    142     (1,15,2)              0.0000000      SURF                                    
    143     (1,15,3)              0.0000000      SURF                                    
    144     (1,15,4)              0.0000000      SURF                                    
    145     (1,15,5)              0.0000000      SURF                                    
    146     (1,15,6)              0.0000000      SURF                                    
    147     (1,15,7)              0.0000000      SURF                                    
    148     (1,15,8)              0.0000000      SURF                                    
    149     (1,15,9)              0.0000000      SURF                                    
    150     (1,15,10)             0.0000000      SURF                                    
 ----------------------------------------------------------------------------------------




 API PACKAGE (MAR) FLOW RATES   PERIOD      2   STEP       52
 -----------------------------------------------
   NUMBER   CELLID                    RATE      
 -----------------------------------------------
     1      (1,6,5)               35.180957     
     2      (1,6,6)               35.180957     
     3      (1,6,7)               35.180957     
     4      (1,10,5)              34.842285     
     5      (1,10,6)              34.842285     
     6      (1,10,7)              34.842285     
 -----------------------------------------------



1
  HEAD IN LAYER   1 AT END OF TIME STEP  52 IN STRESS PERIOD    2
  ---------------------------------------------------------------------------

            1           2           3           4           5           6           7           8           9          10
 ........................................................................................................................
   1   3.4996E-03  6.0266E-03  1.1254E-02  1.8586E-02  2.5526E-02  2.8330E-02  2.5620E-02  1.8900E-02  1.2130E-02  8.1976E-03
   2   6.3490E-03  1.1296E-02  2.1884E-02  3.7468E-02  5.2926E-02  5.9001E-02  5.3089E-02  3.8017E-02  2.3453E-02  1.5291E-02
   3   1.2236E-02  2.2635E-02  4.5987E-02  8.2936E-02  0.1226      0.1371      0.1229      8.3953E-02  4.8960E-02  3.0446E-02
   4   1.9772E-02  3.8294E-02  8.3005E-02  0.1627      0.2626      0.2920      0.2630      0.1643      8.7711E-02  5.1073E-02
   5   2.3245E-02  4.7398E-02  0.1134      0.2607      0.5168      0.5533      0.5173      0.2625      0.1188      6.2522E-02
   6   1.3073E-02  2.6174E-02  7.4718E-02  0.2633      0.9997      0.9121       1.000      0.2644      7.7882E-02  3.4278E-02
   7  -1.2410E-02 -4.0668E-02 -0.1309     -0.3630     -0.8921      -2.118     -0.8921     -0.3633     -0.1329     -5.0748E-02
   8  -2.8187E-02 -8.3597E-02 -0.2728     -0.8461      -2.617      -9.235      -2.617     -0.8473     -0.2781     -0.1050    
   9  -1.4751E-02 -4.3702E-02 -0.1347     -0.3665     -0.8938      -2.119     -0.8938     -0.3670     -0.1374     -5.5055E-02
  10   9.2444E-03  2.1181E-02  6.8534E-02  0.2578      0.9962      0.9098      0.9964      0.2586      7.0657E-02  2.7212E-02
  11   1.9085E-02  4.1759E-02  0.1058      0.2521      0.5092      0.5461      0.5095      0.2535      0.1101      5.4599E-02
  12   1.6283E-02  3.3380E-02  7.5830E-02  0.1535      0.2524      0.2816      0.2528      0.1547      7.9599E-02  4.4209E-02
  13   9.8538E-03  1.9183E-02  4.0695E-02  7.5672E-02  0.1140      0.1279      0.1142      7.6430E-02  4.3032E-02  2.5645E-02
  14   4.9332E-03  9.2046E-03  1.8582E-02  3.2763E-02  4.7108E-02  5.2745E-02  4.7221E-02  3.3161E-02  1.9774E-02  1.2391E-02
  15   2.6060E-03  4.6929E-03  9.1135E-03  1.5477E-02  2.1615E-02  2.4100E-02  2.1678E-02  1.5696E-02  9.7529E-03  6.3515E-03

 HEAD WILL BE SAVED ON UNIT 1100 AT END OF TIME STEP   52, STRESS PERIOD    2


  VOLUME BUDGET FOR ENTIRE MODEL AT END OF TIME STEP   52, STRESS PERIOD   2
  ---------------------------------------------------------------------------------------------------

     CUMULATIVE VOLUME      L**3       RATES FOR THIS TIME STEP      L**3/T          PACKAGE NAME    
     ------------------                 ------------------------                     ----------------

           IN:                                      IN:
           ---                                      ---
              STO-SS =          21.8927                STO-SS =       1.2453E-02     STORAGE                          
              STO-SY =       55071.2098                STO-SY =          26.7231     STORAGE                          
                 WEL =           0.0000                   WEL =           0.0000     WEL-1                            
                 DRN =           0.0000                   DRN =           0.0000     DRN-0                            
                 API =      105560.0842                   API =         210.0697     MAR                              
                 CHD =       2.0279E-08                   CHD =           0.0000     CHD_0                            

            TOTAL IN =      160653.1868              TOTAL IN =         236.8053

          OUT:                                     OUT:
          ----                                     ----
              STO-SS =          18.2112                STO-SS =       1.3546E-02     STORAGE                          
              STO-SY =       35506.0849                STO-SY =          26.7220     STORAGE                          
                 WEL =      125128.8905                   WEL =         210.0697     WEL-1                            
                 DRN =       1.7475E-04                   DRN =       3.4690E-07     DRN-0                            
                 API =           0.0000                   API =           0.0000     MAR                              
                 CHD =       2.0705E-08                   CHD =           0.0000     CHD_0                            

           TOTAL OUT =      160653.1868             TOTAL OUT =         236.8053

            IN - OUT =      -1.2497E-06              IN - OUT =       9.1708E-10

 PERCENT DISCREPANCY =          -0.00     PERCENT DISCREPANCY =           0.00




         TIME SUMMARY AT END OF TIME STEP   52 IN STRESS PERIOD    2
                    SECONDS     MINUTES      HOURS       DAYS        YEARS
                    -----------------------------------------------------------
   TIME STEP LENGTH 8.64000E+05  14400.      240.00      10.000     2.73785E-02
 STRESS PERIOD TIME 4.49280E+07 7.48800E+05  12480.      520.00      1.4237    
         TOTAL TIME 4.50144E+07 7.50240E+05  12504.      521.00      1.4264    


end timestep


start timestep kper="2" kstp="53" mode="normal"

 UBDSV1 SAVING           STO-SS ON UNIT   1099 AT TIME STEP     53, STRESS PERIOD      2
 UBDSV1 SAVING           STO-SY ON UNIT   1099 AT TIME STEP     53, STRESS PERIOD      2
 UBDSV1 SAVING     FLOW-JA-FACE ON UNIT   1099 AT TIME STEP     53, STRESS PERIOD      2
 UBDSV06 SAVING       DATA-SPDIS IN MODEL GWF              PACKAGE NPF             CONNECTED TO MODEL GWF              PACKAGE NPF              ON UNIT   1099 AT TIME STEP     53, STRESS PERIOD      2
 UBDSV06 SAVING              WEL IN MODEL GWF              PACKAGE GWF             CONNECTED TO MODEL GWF              PACKAGE WEL-1            ON UNIT   1099 AT TIME STEP     53, STRESS PERIOD      2
 UBDSV06 SAVING              DRN IN MODEL GWF              PACKAGE GWF             CONNECTED TO MODEL GWF              PACKAGE DRN-0            ON UNIT   1099 AT TIME STEP     53, STRESS PERIOD      2
 UBDSV06 SAVING              API IN MODEL GWF              PACKAGE GWF             CONNECTED TO MODEL GWF              PACKAGE MAR              ON UNIT   1099 AT TIME STEP     53, STRESS PERIOD      2
 UBDSV06 SAVING              CHD IN MODEL GWF              PACKAGE GWF             CONNECTED TO MODEL GWF              PACKAGE CHD_0            ON UNIT   1099 AT TIME STEP     53, STRESS PERIOD      2

    CALCULATED INTERCELL FLOW FOR PERIOD 2 STEP 53
(1,1,1): (1,1,2) 2.660379E-02 (1,2,1) 2.981892E-02
(1,1,2): (1,1,1) -2.660379E-02 (1,1,3) 5.475009E-02 (1,2,2) 5.461190E-02
(1,1,3): (1,1,2) -5.475009E-02 (1,1,4) 7.637945E-02 (1,2,3) 0.109382
(1,1,4): (1,1,3) -7.637945E-02 (1,1,5) 7.199962E-02 (1,2,4) 0.193538
(1,1,5): (1,1,4) -7.199962E-02 (1,1,6) 2.908889E-02 (1,2,5) 0.280429
(1,1,6): (1,1,5) -2.908889E-02 (1,1,7) -2.803577E-02 (1,2,6) 0.313878
(1,1,7): (1,1,6) 2.803577E-02 (1,1,8) -6.959761E-02 (1,2,7) 0.281175
(1,1,8): (1,1,7) 6.959761E-02 (1,1,9) -7.030223E-02 (1,2,8) 0.196066
(1,1,9): (1,1,8) 7.030223E-02 (1,1,10) -4.095112E-02 (1,2,9) 0.116698
(1,1,10): (1,1,9) 4.095112E-02 (1,2,10) 7.363597E-02
(1,2,1): (1,1,1) -2.981892E-02 (1,2,2) 5.139596E-02 (1,3,1) 6.094229E-02
(1,2,2): (1,1,2) -5.461190E-02 (1,2,1) -5.139596E-02 (1,2,3) 0.109520 (1,3,2) 0.116389
(1,2,3): (1,1,3) -0.109382 (1,2,2) -0.109520 (1,2,4) 0.160508 (1,3,3) 0.246153
(1,2,4): (1,1,4) -0.193538 (1,2,3) -0.160508 (1,2,5) 0.158787 (1,3,4) 0.463968
(1,2,5): (1,1,5) -0.280429 (1,2,4) -0.158787 (1,2,6) 6.245450E-02 (1,3,5) 0.712400
(1,2,6): (1,1,6) -0.313878 (1,2,5) -6.245450E-02 (1,2,7) -6.065698E-02 (1,3,6) 0.799089
(1,2,7): (1,1,7) -0.281175 (1,2,6) 6.065698E-02 (1,2,8) -0.154600 (1,3,7) 0.713866
(1,2,8): (1,1,8) -0.196066 (1,2,7) 0.154600 (1,2,9) -0.149634 (1,3,8) 0.468971
(1,2,9): (1,1,9) -0.116698 (1,2,8) 0.149634 (1,2,10) -8.399933E-02 (1,3,9) 0.260884
(1,2,10): (1,1,10) -7.363597E-02 (1,2,9) 8.399933E-02 (1,3,10) 0.155829
(1,3,1): (1,2,1) -6.094229E-02 (1,3,2) 0.106837 (1,4,1) 7.662693E-02
(1,3,2): (1,2,2) -0.116389 (1,3,1) -0.106837 (1,3,3) 0.239276 (1,4,2) 0.158291
(1,3,3): (1,2,3) -0.246153 (1,3,2) -0.239276 (1,3,4) 0.378140 (1,4,3) 0.374276
(1,3,4): (1,2,4) -0.463968 (1,3,3) -0.378140 (1,3,5) 0.406483 (1,4,4) 0.812114
(1,3,5): (1,2,5) -0.712400 (1,3,4) -0.406483 (1,3,6) 0.148601 (1,4,5) 1.43821
(1,3,6): (1,2,6) -0.799089 (1,3,5) -0.148601 (1,3,7) -0.145344 (1,4,6) 1.59719
(1,3,7): (1,2,7) -0.713866 (1,3,6) 0.145344 (1,3,8) -0.398748 (1,4,7) 1.43996
(1,3,8): (1,2,8) -0.468971 (1,3,7) 0.398748 (1,3,9) -0.357494 (1,4,8) 0.818079
(1,3,9): (1,2,9) -0.260884 (1,3,8) 0.357494 (1,3,10) -0.188979 (1,4,9) 0.392262
(1,3,10): (1,2,10) -0.155829 (1,3,9) 0.188979 (1,4,10) 0.208902
(1,4,1): (1,3,1) -7.662693E-02 (1,4,2) 0.188525 (1,5,1) 3.268778E-02
(1,4,2): (1,3,2) -0.158291 (1,4,1) -0.188525 (1,4,3) 0.455433 (1,5,2) 8.735514E-02
(1,4,3): (1,3,3) -0.374276 (1,4,2) -0.455433 (1,4,4) 0.815994 (1,5,3) 0.299920
(1,4,4): (1,3,4) -0.812114 (1,4,3) -0.815994 (1,4,5) 1.03018 (1,5,4) 0.994659
(1,4,5): (1,3,5) -1.43821 (1,4,4) -1.03018 (1,4,6) 0.305693 (1,5,5) 2.66410
(1,4,6): (1,3,6) -1.59719 (1,4,5) -0.305693 (1,4,7) -0.300700 (1,5,6) 2.74897
(1,4,7): (1,3,7) -1.43996 (1,4,6) 0.300700 (1,4,8) -1.01817 (1,5,7) 2.66485
(1,4,8): (1,3,8) -0.818079 (1,4,7) 1.01817 (1,4,9) -0.783168 (1,5,8) 0.996960
(1,4,9): (1,3,9) -0.392262 (1,4,8) 0.783168 (1,4,10) -0.372304 (1,5,9) 0.306866
(1,4,10): (1,3,10) -0.208902 (1,4,9) 0.372304 (1,5,10) 0.109596
(1,5,1): (1,4,1) -3.268778E-02 (1,5,2) 0.243277 (1,6,1) -0.108455
(1,5,2): (1,4,2) -8.735514E-02 (1,5,1) -0.243277 (1,5,3) 0.668762 (1,6,2) -0.224223
(1,5,3): (1,4,3) -0.299920 (1,5,2) -0.668762 (1,5,4) 1.51414 (1,6,3) -0.410073
(1,5,4): (1,4,4) -0.994659 (1,5,3) -1.51414 (1,5,5) 2.70016 (1,6,4) 2.136392E-03
(1,5,5): (1,4,5) -2.66410 (1,5,4) -2.70016 (1,5,6) 0.388963 (1,6,5) 5.29404
(1,5,6): (1,4,6) -2.74897 (1,5,5) -0.388963 (1,5,7) -0.383224 (1,6,6) 3.90193
(1,5,7): (1,4,7) -2.66485 (1,5,6) 0.383224 (1,5,8) -2.68638 (1,6,7) 5.29215
(1,5,8): (1,4,8) -0.996960 (1,5,7) 2.68638 (1,5,9) -1.47638 (1,6,8) -5.149837E-03
(1,5,9): (1,4,9) -0.306866 (1,5,8) 1.47638 (1,5,10) -0.570080 (1,6,9) -0.434813
(1,5,10): (1,4,10) -0.109596 (1,5,9) 0.570080 (1,6,10) -0.299273
(1,6,1): (1,5,1) 0.108455 (1,6,2) 0.127487 (1,7,1) -0.263272
(1,6,2): (1,5,2) 0.224223 (1,6,1) -0.127487 (1,6,3) 0.482447 (1,7,2) -0.683609
(1,6,3): (1,5,3) 0.410073 (1,6,2) -0.482447 (1,6,4) 1.93237 (1,7,3) -2.09489
(1,6,4): (1,5,4) -2.136392E-03 (1,6,3) -1.93237 (1,6,5) 8.11546 (1,7,4) -6.46344
(1,6,5): (1,5,5) -5.29404 (1,6,4) -8.11546 (1,6,6) -0.955699 (1,7,5) -20.8590
(1,6,6): (1,5,6) -3.90193 (1,6,5) 0.955699 (1,6,7) 0.959657 (1,7,6) -33.1135
(1,6,7): (1,5,7) -5.29215 (1,6,6) -0.959657 (1,6,8) -8.10692 (1,7,7) -20.8633
(1,6,8): (1,5,8) 5.149837E-03 (1,6,7) 8.10692 (1,6,9) -1.91213 (1,7,8) -6.47900
(1,6,9): (1,5,9) 0.434813 (1,6,8) 1.91213 (1,6,10) -0.434363 (1,7,9) -2.15015
(1,6,10): (1,5,10) 0.299273 (1,6,9) 0.434363 (1,7,10) -0.871581
(1,7,1): (1,6,1) 0.263272 (1,7,2) -0.291378 (1,8,1) -0.161313
(1,7,2): (1,6,2) 0.683609 (1,7,1) 0.291378 (1,7,3) -0.914900 (1,8,2) -0.433514
(1,7,3): (1,6,3) 2.09489 (1,7,2) 0.914900 (1,7,4) -2.30446 (1,8,3) -1.40992
(1,7,4): (1,6,4) 6.46344 (1,7,3) 2.30446 (1,7,5) -5.09232 (1,8,4) -4.66749
(1,7,5): (1,6,5) 20.8590 (1,7,4) 5.09232 (1,7,6) -11.1510 (1,8,5) -15.7120
(1,7,6): (1,6,6) 33.1135 (1,7,5) 11.1510 (1,7,7) 11.1513 (1,8,6) -56.0497
(1,7,7): (1,6,7) 20.8633 (1,7,6) -11.1513 (1,7,8) 5.08912 (1,8,7) -15.7145
(1,7,8): (1,6,8) 6.47900 (1,7,7) -5.08912 (1,7,9) 2.28439 (1,8,8) -4.67681
(1,7,9): (1,6,9) 2.15015 (1,7,8) -2.28439 (1,7,10) 0.829620 (1,8,9) -1.44311
(1,7,10): (1,6,10) 0.871581 (1,7,9) -0.829620 (1,8,10) -0.548127
(1,8,1): (1,7,1) 0.161313 (1,8,2) -0.563937 (1,9,1) 0.137993
(1,8,2): (1,7,2) 0.433514 (1,8,1) 0.563937 (1,8,3) -1.89611 (1,9,2) 0.403679
(1,8,3): (1,7,3) 1.40992 (1,8,2) 1.89611 (1,8,4) -5.59301 (1,9,3) 1.37339
(1,8,4): (1,7,4) 4.66749 (1,8,3) 5.59301 (1,8,5) -16.1916 (1,9,4) 4.63396
(1,8,5): (1,7,5) 15.7120 (1,8,4) 16.1916 (1,8,6) -48.7889 (1,9,5) 15.6920
(1,8,6): (1,7,6) 56.0497 (1,8,5) 48.7889 (1,8,7) 48.7856 (1,9,6) 56.0329
(1,8,7): (1,7,7) 15.7145 (1,8,6) -48.7856 (1,8,8) 16.1799 (1,9,7) 15.6934
(1,8,8): (1,7,8) 4.67681 (1,8,7) -16.1799 (1,8,9) 5.54703 (1,9,8) 4.64042
(1,8,9): (1,7,9) 1.44311 (1,8,8) -5.54703 (1,8,10) 1.72718 (1,9,9) 1.40007
(1,8,10): (1,7,10) 0.548127 (1,8,9) -1.72718 (1,9,10) 0.505771
(1,9,1): (1,8,1) -0.137993 (1,9,2) -0.297824 (1,10,1) 0.248209
(1,9,2): (1,8,2) -0.403679 (1,9,1) 0.297824 (1,9,3) -0.921264 (1,10,2) 0.663775
(1,9,3): (1,8,3) -1.37339 (1,9,2) 0.921264 (1,9,4) -2.30029 (1,10,3) 2.06947
(1,9,4): (1,8,4) -4.63396 (1,9,3) 2.30029 (1,9,5) -5.07641 (1,10,4) 6.43762
(1,9,5): (1,8,5) -15.6920 (1,9,4) 5.07641 (1,9,6) -11.1421 (1,10,5) 20.8054
(1,9,6): (1,8,6) -56.0329 (1,9,5) 11.1421 (1,9,7) 11.1414 (1,10,6) 33.0588
(1,9,7): (1,8,7) -15.6934 (1,9,6) -11.1414 (1,9,8) 5.07130 (1,10,7) 20.8089
(1,9,8): (1,8,8) -4.64042 (1,9,7) -5.07130 (1,9,9) 2.27646 (1,10,8) 6.45130
(1,9,9): (1,8,9) -1.40007 (1,9,8) -2.27646 (1,9,10) 0.829906 (1,10,9) 2.12050
(1,9,10): (1,8,10) -0.505771 (1,9,9) -0.829906 (1,10,10) 0.843484
(1,10,1): (1,9,1) -0.248209 (1,10,2) 0.116368 (1,11,1) 0.104849
(1,10,2): (1,9,2) -0.663775 (1,10,1) -0.116368 (1,10,3) 0.470876 (1,11,2) 0.217394
(1,10,3): (1,9,3) -2.06947 (1,10,2) -0.470876 (1,10,4) 1.93704 (1,11,3) 0.395143
(1,10,4): (1,9,4) -6.43762 (1,10,3) -1.93704 (1,10,5) 8.10870 (1,11,4) -3.134662E-02
(1,10,5): (1,9,5) -20.8054 (1,10,4) -8.10870 (1,10,6) -0.945020 (1,11,5) -5.31227
(1,10,6): (1,9,6) -33.0588 (1,10,5) 0.945020 (1,10,7) 0.947339 (1,11,6) -3.92743
(1,10,7): (1,9,7) -20.8089 (1,10,6) -0.947339 (1,10,8) -8.10326 (1,11,7) -5.31047
(1,10,8): (1,9,8) -6.45130 (1,10,7) 8.10326 (1,10,9) -1.92295 (1,11,8) -2.444640E-02
(1,10,9): (1,9,9) -2.12050 (1,10,8) 1.92295 (1,10,10) -0.432886 (1,11,9) 0.418920
(1,10,10): (1,9,10) -0.843484 (1,10,9) 0.432886 (1,11,10) 0.290094
(1,11,1): (1,10,1) -0.104849 (1,11,2) 0.228927 (1,12,1) -2.620428E-02
(1,11,2): (1,10,2) -0.217394 (1,11,1) -0.228927 (1,11,3) 0.649062 (1,12,2) -8.048584E-02
(1,11,3): (1,10,3) -0.395143 (1,11,2) -0.649062 (1,11,4) 1.50425 (1,12,3) -0.295624
(1,11,4): (1,10,4) 3.134662E-02 (1,11,3) -1.50425 (1,11,5) 2.70565 (1,12,4) -1.00068
(1,11,5): (1,10,5) 5.31227 (1,11,4) -2.70565 (1,11,6) 0.392283 (1,12,5) -2.68605
(1,11,6): (1,10,6) 3.92743 (1,11,5) -0.392283 (1,11,7) -0.388256 (1,12,6) -2.77790
(1,11,7): (1,10,7) 5.31047 (1,11,6) 0.388256 (1,11,8) -2.69514 (1,12,7) -2.68648
(1,11,8): (1,10,8) 2.444640E-02 (1,11,7) 2.69514 (1,11,9) -1.47319 (1,12,8) -1.00213
(1,11,9): (1,10,9) -0.418920 (1,11,8) 1.47319 (1,11,10) -0.561890 (1,12,9) -0.300713
(1,11,10): (1,10,10) -0.290094 (1,11,9) 0.561890 (1,12,10) -9.950510E-02
(1,12,1): (1,11,1) 2.620428E-02 (1,12,2) 0.174565 (1,13,1) -6.562869E-02
(1,12,2): (1,11,2) 8.048584E-02 (1,12,1) -0.174565 (1,12,3) 0.433181 (1,13,2) -0.143923
(1,12,3): (1,11,3) 0.295624 (1,12,2) -0.433181 (1,12,4) 0.795832 (1,13,3) -0.355852
(1,12,4): (1,11,4) 1.00068 (1,12,3) -0.795832 (1,12,5) 1.01998 (1,13,4) -0.793077
(1,12,5): (1,11,5) 2.68605 (1,12,4) -1.01998 (1,12,6) 0.302203 (1,13,5) -1.42301
(1,12,6): (1,11,6) 2.77790 (1,12,5) -0.302203 (1,12,7) -0.298600 (1,13,6) -1.58387
(1,12,7): (1,11,7) 2.68648 (1,12,6) 0.298600 (1,12,8) -1.01066 (1,13,7) -1.42429
(1,12,8): (1,11,8) 1.00213 (1,12,7) 1.01066 (1,12,9) -0.768647 (1,13,8) -0.797719
(1,12,9): (1,11,9) 0.300713 (1,12,8) 0.768647 (1,12,10) -0.360170 (1,13,9) -0.370781
(1,12,10): (1,11,10) 9.950510E-02 (1,12,9) 0.360170 (1,13,10) -0.188570
(1,13,1): (1,12,1) 6.562869E-02 (1,13,2) 9.624696E-02 (1,14,1) -5.122467E-02
(1,13,2): (1,12,2) 0.143923 (1,13,1) -9.624696E-02 (1,13,3) 0.221092 (1,14,2) -0.102853
(1,13,3): (1,12,3) 0.355852 (1,13,2) -0.221092 (1,13,4) 0.358595 (1,14,3) -0.226533
(1,13,4): (1,12,4) 0.793077 (1,13,3) -0.358595 (1,13,5) 0.392434 (1,14,4) -0.438768
(1,13,5): (1,12,5) 1.42301 (1,13,4) -0.392434 (1,13,6) 0.143243 (1,14,5) -0.684197
(1,13,6): (1,12,6) 1.58387 (1,13,5) -0.143243 (1,13,7) -0.140913 (1,14,6) -0.769869
(1,13,7): (1,12,7) 1.42429 (1,13,6) 0.140913 (1,13,8) -0.386517 (1,14,7) -0.685279
(1,13,8): (1,12,8) 0.797719 (1,13,7) 0.386517 (1,13,9) -0.341828 (1,14,8) -0.442652
(1,13,9): (1,12,9) 0.370781 (1,13,8) 0.341828 (1,13,10) -0.177977 (1,14,9) -0.238606
(1,13,10): (1,12,10) 0.188570 (1,13,9) 0.177977 (1,14,10) -0.136874
(1,14,1): (1,13,1) 5.122467E-02 (1,14,2) 4.462189E-02 (1,15,1) -2.451834E-02
(1,14,2): (1,13,2) 0.102853 (1,14,1) -4.462189E-02 (1,14,3) 9.741805E-02 (1,15,2) -4.702000E-02
(1,14,3): (1,13,3) 0.226533 (1,14,2) -9.741805E-02 (1,14,4) 0.146528 (1,15,3) -9.786620E-02
(1,14,4): (1,13,4) 0.438768 (1,14,3) -0.146528 (1,14,5) 0.147700 (1,15,4) -0.177810
(1,14,5): (1,13,5) 0.684197 (1,14,4) -0.147700 (1,14,6) 5.808880E-02 (1,15,5) -0.261659
(1,14,6): (1,13,6) 0.769869 (1,14,5) -5.808880E-02 (1,14,7) -5.683578E-02 (1,15,6) -0.293949
(1,14,7): (1,13,7) 0.685279 (1,14,6) 5.683578E-02 (1,14,8) -0.144592 (1,15,7) -0.262203
(1,14,8): (1,13,8) 0.442652 (1,14,7) 0.144592 (1,14,9) -0.137984 (1,15,8) -0.179743
(1,14,9): (1,13,9) 0.238606 (1,14,8) 0.137984 (1,14,10) -7.630636E-02 (1,15,9) -0.103746
(1,14,10): (1,13,10) 0.136874 (1,14,9) 7.630636E-02 (1,15,10) -6.305309E-02
(1,15,1): (1,14,1) 2.451834E-02 (1,15,2) 2.212077E-02
(1,15,2): (1,14,2) 4.702000E-02 (1,15,1) -2.212077E-02 (1,15,3) 4.657208E-02
(1,15,3): (1,14,3) 9.786620E-02 (1,15,2) -4.657208E-02 (1,15,4) 6.660851E-02
(1,15,4): (1,14,4) 0.177810 (1,15,3) -6.660851E-02 (1,15,5) 6.394601E-02
(1,15,5): (1,14,5) 0.261659 (1,15,4) -6.394601E-02 (1,15,6) 2.587316E-02
(1,15,6): (1,14,6) 0.293949 (1,15,5) -2.587316E-02 (1,15,7) -2.516355E-02
(1,15,7): (1,14,7) 0.262203 (1,15,6) 2.516355E-02 (1,15,8) -6.222788E-02
(1,15,8): (1,14,8) 0.179743 (1,15,7) 6.222788E-02 (1,15,9) -6.201955E-02
(1,15,9): (1,14,9) 0.103746 (1,15,8) 6.201955E-02 (1,15,10) -3.562411E-02
(1,15,10): (1,14,10) 6.305309E-02 (1,15,9) 3.562411E-02

 WEL PACKAGE (WEL-1) FLOW RATES   PERIOD      2   STEP       53
 ----------------------------------------------------------------------------------------
   NUMBER   CELLID                    RATE       NAME                                    
 ----------------------------------------------------------------------------------------
     1      (1,8,6)              -209.81815      WEL                                     
 ----------------------------------------------------------------------------------------




 DRN PACKAGE (DRN-0) FLOW RATES   PERIOD      2   STEP       53
 ----------------------------------------------------------------------------------------
   NUMBER   CELLID                    RATE       NAME                                    
 ----------------------------------------------------------------------------------------
     1      (1,1,1)               0.0000000      SURF                                    
     2      (1,1,2)               0.0000000      SURF                                    
     3      (1,1,3)               0.0000000      SURF                                    
     4      (1,1,4)               0.0000000      SURF                                    
     5      (1,1,5)               0.0000000      SURF                                    
     6      (1,1,6)               0.0000000      SURF                                    
     7      (1,1,7)               0.0000000      SURF                                    
     8      (1,1,8)               0.0000000      SURF                                    
     9      (1,1,9)               0.0000000      SURF                                    
     10     (1,1,10)              0.0000000      SURF                                    
     11     (1,2,1)               0.0000000      SURF                                    
     12     (1,2,2)               0.0000000      SURF                                    
     13     (1,2,3)               0.0000000      SURF                                    
     14     (1,2,4)               0.0000000      SURF                                    
     15     (1,2,5)               0.0000000      SURF                                    
     16     (1,2,6)               0.0000000      SURF                                    
     17     (1,2,7)               0.0000000      SURF                                    
     18     (1,2,8)               0.0000000      SURF                                    
     19     (1,2,9)               0.0000000      SURF                                    
     20     (1,2,10)              0.0000000      SURF                                    
     21     (1,3,1)               0.0000000      SURF                                    
     22     (1,3,2)               0.0000000      SURF                                    
     23     (1,3,3)               0.0000000      SURF                                    
     24     (1,3,4)               0.0000000      SURF                                    
     25     (1,3,5)               0.0000000      SURF                                    
     26     (1,3,6)               0.0000000      SURF                                    
     27     (1,3,7)               0.0000000      SURF                                    
     28     (1,3,8)               0.0000000      SURF                                    
     29     (1,3,9)               0.0000000      SURF                                    
     30     (1,3,10)              0.0000000      SURF                                    
     31     (1,4,1)               0.0000000      SURF                                    
     32     (1,4,2)               0.0000000      SURF                                    
     33     (1,4,3)               0.0000000      SURF                                    
     34     (1,4,4)               0.0000000      SURF                                    
     35     (1,4,5)               0.0000000      SURF                                    
     36     (1,4,6)               0.0000000      SURF                                    
     37     (1,4,7)               0.0000000      SURF                                    
     38     (1,4,8)               0.0000000      SURF                                    
     39     (1,4,9)               0.0000000      SURF                                    
     40     (1,4,10)              0.0000000      SURF                                    
     41     (1,5,1)               0.0000000      SURF                                    
     42     (1,5,2)               0.0000000      SURF                                    
     43     (1,5,3)               0.0000000      SURF                                    
     44     (1,5,4)               0.0000000      SURF                                    
     45     (1,5,5)               0.0000000      SURF                                    
     46     (1,5,6)               0.0000000      SURF                                    
     47     (1,5,7)               0.0000000      SURF                                    
     48     (1,5,8)               0.0000000      SURF                                    
     49     (1,5,9)               0.0000000      SURF                                    
     50     (1,5,10)              0.0000000      SURF                                    
     51     (1,6,1)               0.0000000      SURF                                    
     52     (1,6,2)               0.0000000      SURF                                    
     53     (1,6,3)               0.0000000      SURF                                    
     54     (1,6,4)               0.0000000      SURF                                    
     55     (1,6,5)               0.0000000      SURF                                    
     56     (1,6,6)               0.0000000      SURF                                    
     57     (1,6,7)              -3.45258741E-07 SURF                                    
     58     (1,6,8)               0.0000000      SURF                                    
     59     (1,6,9)               0.0000000      SURF                                    
     60     (1,6,10)              0.0000000      SURF                                    
     61     (1,7,1)               0.0000000      SURF                                    
     62     (1,7,2)               0.0000000      SURF                                    
     63     (1,7,3)               0.0000000      SURF                                    
     64     (1,7,4)               0.0000000      SURF                                    
     65     (1,7,5)               0.0000000      SURF                                    
     66     (1,7,6)               0.0000000      SURF                                    
     67     (1,7,7)               0.0000000      SURF                                    
     68     (1,7,8)               0.0000000      SURF                                    
     69     (1,7,9)               0.0000000      SURF                                    
     70     (1,7,10)              0.0000000      SURF                                    
     71     (1,8,1)               0.0000000      SURF                                    
     72     (1,8,2)               0.0000000      SURF                                    
     73     (1,8,3)               0.0000000      SURF                                    
     74     (1,8,4)               0.0000000      SURF                                    
     75     (1,8,5)               0.0000000      SURF                                    
     76     (1,8,6)               0.0000000      SURF                                    
     77     (1,8,7)               0.0000000      SURF                                    
     78     (1,8,8)               0.0000000      SURF                                    
     79     (1,8,9)               0.0000000      SURF                                    
     80     (1,8,10)              0.0000000      SURF                                    
     81     (1,9,1)               0.0000000      SURF                                    
     82     (1,9,2)               0.0000000      SURF                                    
     83     (1,9,3)               0.0000000      SURF                                    
     84     (1,9,4)               0.0000000      SURF                                    
     85     (1,9,5)               0.0000000      SURF                                    
     86     (1,9,6)               0.0000000      SURF                                    
     87     (1,9,7)               0.0000000      SURF                                    
     88     (1,9,8)               0.0000000      SURF                                    
     89     (1,9,9)               0.0000000      SURF                                    
     90     (1,9,10)              0.0000000      SURF                                    
     91     (1,10,1)              0.0000000      SURF                                    
     92     (1,10,2)              0.0000000      SURF                                    
     93     (1,10,3)              0.0000000      SURF                                    
     94     (1,10,4)              0.0000000      SURF                                    
     95     (1,10,5)              0.0000000      SURF                                    
     96     (1,10,6)              0.0000000      SURF                                    
     97     (1,10,7)              0.0000000      SURF                                    
     98     (1,10,8)              0.0000000      SURF                                    
     99     (1,10,9)              0.0000000      SURF                                    
    100     (1,10,10)             0.0000000      SURF                                    
    101     (1,11,1)              0.0000000      SURF                                    
    102     (1,11,2)              0.0000000      SURF                                    
    103     (1,11,3)              0.0000000      SURF                                    
    104     (1,11,4)              0.0000000      SURF                                    
    105     (1,11,5)              0.0000000      SURF                                    
    106     (1,11,6)              0.0000000      SURF                                    
    107     (1,11,7)              0.0000000      SURF                                    
    108     (1,11,8)              0.0000000      SURF                                    
    109     (1,11,9)              0.0000000      SURF                                    
    110     (1,11,10)             0.0000000      SURF                                    
    111     (1,12,1)              0.0000000      SURF                                    
    112     (1,12,2)              0.0000000      SURF                                    
    113     (1,12,3)              0.0000000      SURF                                    
    114     (1,12,4)              0.0000000      SURF                                    
    115     (1,12,5)              0.0000000      SURF                                    
    116     (1,12,6)              0.0000000      SURF                                    
    117     (1,12,7)              0.0000000      SURF                                    
    118     (1,12,8)              0.0000000      SURF                                    
    119     (1,12,9)              0.0000000      SURF                                    
    120     (1,12,10)             0.0000000      SURF                                    
    121     (1,13,1)              0.0000000      SURF                                    
    122     (1,13,2)              0.0000000      SURF                                    
    123     (1,13,3)              0.0000000      SURF                                    
    124     (1,13,4)              0.0000000      SURF                                    
    125     (1,13,5)              0.0000000      SURF                                    
    126     (1,13,6)              0.0000000      SURF                                    
    127     (1,13,7)              0.0000000      SURF                                    
    128     (1,13,8)              0.0000000      SURF                                    
    129     (1,13,9)              0.0000000      SURF                                    
    130     (1,13,10)             0.0000000      SURF                                    
    131     (1,14,1)              0.0000000      SURF                                    
    132     (1,14,2)              0.0000000      SURF                                    
    133     (1,14,3)              0.0000000      SURF                                    
    134     (1,14,4)              0.0000000      SURF                                    
    135     (1,14,5)              0.0000000      SURF                                    
    136     (1,14,6)              0.0000000      SURF                                    
    137     (1,14,7)              0.0000000      SURF                                    
    138     (1,14,8)              0.0000000      SURF                                    
    139     (1,14,9)              0.0000000      SURF                                    
    140     (1,14,10)             0.0000000      SURF                                    
    141     (1,15,1)              0.0000000      SURF                                    
    142     (1,15,2)              0.0000000      SURF                                    
    143     (1,15,3)              0.0000000      SURF                                    
    144     (1,15,4)              0.0000000      SURF                                    
    145     (1,15,5)              0.0000000      SURF                                    
    146     (1,15,6)              0.0000000      SURF                                    
    147     (1,15,7)              0.0000000      SURF                                    
    148     (1,15,8)              0.0000000      SURF                                    
    149     (1,15,9)              0.0000000      SURF                                    
    150     (1,15,10)             0.0000000      SURF                                    
 ----------------------------------------------------------------------------------------




 API PACKAGE (MAR) FLOW RATES   PERIOD      2   STEP       53
 -----------------------------------------------
   NUMBER   CELLID                    RATE      
 -----------------------------------------------
     1      (1,6,5)               35.221989     
     2      (1,6,6)               35.221989     
     3      (1,6,7)               35.221989     
     4      (1,10,5)              34.717395     
     5      (1,10,6)              34.717395     
     6      (1,10,7)              34.717395     
 -----------------------------------------------



1
  HEAD IN LAYER   1 AT END OF TIME STEP  53 IN STRESS PERIOD    2
  ---------------------------------------------------------------------------

            1           2           3           4           5           6           7           8           9          10
 ........................................................................................................................
   1   3.7816E-03  6.4402E-03  1.1909E-02  1.9532E-02  2.6713E-02  2.9613E-02  2.6818E-02  1.9876E-02  1.2860E-02  8.7703E-03
   2   6.7614E-03  1.1895E-02  2.2822E-02  3.8811E-02  5.4603E-02  6.0811E-02  5.4782E-02  3.9406E-02  2.4501E-02  1.6122E-02
   3   1.2848E-02  2.3506E-02  4.7321E-02  8.4817E-02  0.1250      0.1396      0.1253      8.5904E-02  5.0459E-02  3.1656E-02
   4   2.0495E-02  3.9274E-02  8.4436E-02  0.1647      0.2651      0.2948      0.2656      0.1664      8.9338E-02  5.2437E-02
   5   2.3756E-02  4.7967E-02  0.1141      0.2616      0.5184      0.5552      0.5189      0.2635      0.1197      6.3328E-02
   6   1.2936E-02  2.5652E-02  7.3545E-02  0.2619      0.9996      0.9128       1.000      0.2630      7.6694E-02  3.3589E-02
   7  -1.3357E-02 -4.2534E-02 -0.1344     -0.3680     -0.8967      -2.122     -0.8967     -0.3683     -0.1367     -5.3278E-02
   8  -2.9510E-02 -8.6070E-02 -0.2773     -0.8526      -2.623      -9.236      -2.623     -0.8539     -0.2830     -0.1084    
   9  -1.5689E-02 -4.5518E-02 -0.1381     -0.3713     -0.8985      -2.123     -0.8986     -0.3719     -0.1410     -5.7514E-02
  10   9.1095E-03  2.0722E-02  6.7494E-02  0.2564      0.9939      0.9080      0.9941      0.2571      6.9600E-02  2.6610E-02
  11   1.9574E-02  4.2370E-02  0.1066      0.2533      0.5107      0.5479      0.5111      0.2547      0.1110      5.5460E-02
  12   1.6959E-02  3.4355E-02  7.7341E-02  0.1557      0.2552      0.2845      0.2555      0.1570      8.1290E-02  4.5564E-02
  13   1.0407E-02  2.0012E-02  4.2029E-02  7.7612E-02  0.1164      0.1305      0.1166      7.8428E-02  4.4511E-02  2.6792E-02
  14   5.2896E-03  9.7475E-03  1.9470E-02  3.4073E-02  4.8772E-02  5.4549E-02  4.8896E-02  3.4507E-02  2.0756E-02  1.3142E-02
  15   2.8391E-03  5.0501E-03  9.7028E-03  1.6353E-02  2.2733E-02  2.5314E-02  2.2804E-02  1.6595E-02  1.0403E-02  6.8446E-03

 HEAD WILL BE SAVED ON UNIT 1100 AT END OF TIME STEP   53, STRESS PERIOD    2


  VOLUME BUDGET FOR ENTIRE MODEL AT END OF TIME STEP   53, STRESS PERIOD   2
  ---------------------------------------------------------------------------------------------------

     CUMULATIVE VOLUME      L**3       RATES FOR THIS TIME STEP      L**3/T          PACKAGE NAME    
     ------------------                 ------------------------                     ----------------

           IN:                                      IN:
           ---                                      ---
              STO-SS =          22.0157                STO-SS =       1.2295E-02     STORAGE                          
              STO-SY =       55334.1842                STO-SY =          26.2974     STORAGE                          
                 WEL =           0.0000                   WEL =           0.0000     WEL-1                            
                 DRN =           0.0000                   DRN =           0.0000     DRN-0                            
                 API =      107658.2658                   API =         209.8182     MAR                              
                 CHD =       2.0279E-08                   CHD =           0.0000     CHD_0                            

            TOTAL IN =      163014.4657              TOTAL IN =         236.1279

          OUT:                                     OUT:
          ----                                     ----
              STO-SS =          18.3445                STO-SS =       1.3328E-02     STORAGE                          
              STO-SY =       35769.0491                STO-SY =          26.2964     STORAGE                          
                 WEL =      127227.0720                   WEL =         209.8182     WEL-1                            
                 DRN =       1.7820E-04                   DRN =       3.4526E-07     DRN-0                            
                 API =           0.0000                   API =           0.0000     MAR                              
                 CHD =       2.0705E-08                   CHD =           0.0000     CHD_0                            

           TOTAL OUT =      163014.4657             TOTAL OUT =         236.1279

            IN - OUT =      -1.2408E-06              IN - OUT =       8.9443E-10

 PERCENT DISCREPANCY =          -0.00     PERCENT DISCREPANCY =           0.00




         TIME SUMMARY AT END OF TIME STEP   53 IN STRESS PERIOD    2
                    SECONDS     MINUTES      HOURS       DAYS        YEARS
                    -----------------------------------------------------------
   TIME STEP LENGTH 8.64000E+05  14400.      240.00      10.000     2.73785E-02
 STRESS PERIOD TIME 4.57920E+07 7.63200E+05  12720.      530.00      1.4511    
         TOTAL TIME 4.58784E+07 7.64640E+05  12744.      531.00      1.4538    


end timestep


start timestep kper="2" kstp="54" mode="normal"

 UBDSV1 SAVING           STO-SS ON UNIT   1099 AT TIME STEP     54, STRESS PERIOD      2
 UBDSV1 SAVING           STO-SY ON UNIT   1099 AT TIME STEP     54, STRESS PERIOD      2
 UBDSV1 SAVING     FLOW-JA-FACE ON UNIT   1099 AT TIME STEP     54, STRESS PERIOD      2
 UBDSV06 SAVING       DATA-SPDIS IN MODEL GWF              PACKAGE NPF             CONNECTED TO MODEL GWF              PACKAGE NPF              ON UNIT   1099 AT TIME STEP     54, STRESS PERIOD      2
 UBDSV06 SAVING              WEL IN MODEL GWF              PACKAGE GWF             CONNECTED TO MODEL GWF              PACKAGE WEL-1            ON UNIT   1099 AT TIME STEP     54, STRESS PERIOD      2
 UBDSV06 SAVING              DRN IN MODEL GWF              PACKAGE GWF             CONNECTED TO MODEL GWF              PACKAGE DRN-0            ON UNIT   1099 AT TIME STEP     54, STRESS PERIOD      2
 UBDSV06 SAVING              API IN MODEL GWF              PACKAGE GWF             CONNECTED TO MODEL GWF              PACKAGE MAR              ON UNIT   1099 AT TIME STEP     54, STRESS PERIOD      2
 UBDSV06 SAVING              CHD IN MODEL GWF              PACKAGE GWF             CONNECTED TO MODEL GWF              PACKAGE CHD_0            ON UNIT   1099 AT TIME STEP     54, STRESS PERIOD      2

    CALCULATED INTERCELL FLOW FOR PERIOD 2 STEP 54
(1,1,1): (1,1,2) 2.793690E-02 (1,2,1) 3.111966E-02
(1,1,2): (1,1,1) -2.793690E-02 (1,1,3) 5.718485E-02 (1,2,2) 5.644309E-02
(1,1,3): (1,1,2) -5.718485E-02 (1,1,4) 7.930463E-02 (1,2,3) 0.112156
(1,1,4): (1,1,3) -7.930463E-02 (1,1,5) 7.442921E-02 (1,2,4) 0.197418
(1,1,5): (1,1,4) -7.442921E-02 (1,1,6) 3.005682E-02 (1,2,5) 0.285224
(1,1,6): (1,1,5) -3.005682E-02 (1,1,7) -2.889065E-02 (1,2,6) 0.319032
(1,1,7): (1,1,6) 2.889065E-02 (1,1,8) -7.180923E-02 (1,2,7) 0.286022
(1,1,8): (1,1,7) 7.180923E-02 (1,1,9) -7.276668E-02 (1,2,8) 0.200099
(1,1,9): (1,1,8) 7.276668E-02 (1,1,10) -4.252364E-02 (1,2,9) 0.119827
(1,1,10): (1,1,9) 4.252364E-02 (1,2,10) 7.618380E-02
(1,2,1): (1,1,1) -3.111966E-02 (1,2,2) 5.325952E-02 (1,3,1) 6.290053E-02
(1,2,2): (1,1,2) -5.644309E-02 (1,2,1) -5.325952E-02 (1,2,3) 0.112899 (1,3,2) 0.119025
(1,2,3): (1,1,3) -0.112156 (1,2,2) -0.112899 (1,2,4) 0.164539 (1,3,3) 0.249970
(1,2,4): (1,1,4) -0.197418 (1,2,3) -0.164539 (1,2,5) 0.162128 (1,3,4) 0.469192
(1,2,5): (1,1,5) -0.285224 (1,2,4) -0.162128 (1,2,6) 6.378061E-02 (1,3,5) 0.718892
(1,2,6): (1,1,6) -0.319032 (1,2,5) -6.378061E-02 (1,2,7) -6.181712E-02 (1,3,6) 0.806099
(1,2,7): (1,1,7) -0.286022 (1,2,6) 6.181712E-02 (1,2,8) -0.157624 (1,3,7) 0.720445
(1,2,8): (1,1,8) -0.200099 (1,2,7) 0.157624 (1,2,9) -0.153001 (1,3,8) 0.474436
(1,2,9): (1,1,9) -0.119827 (1,2,8) 0.153001 (1,2,10) -8.615188E-02 (1,3,9) 0.265242
(1,2,10): (1,1,10) -7.618380E-02 (1,2,9) 8.615188E-02 (1,3,10) 0.159511
(1,3,1): (1,2,1) -6.290053E-02 (1,3,2) 0.109379 (1,4,1) 7.761877E-02
(1,3,2): (1,2,2) -0.119025 (1,3,1) -0.109379 (1,3,3) 0.243835 (1,4,2) 0.159213
(1,3,3): (1,2,3) -0.249970 (1,3,2) -0.243835 (1,3,4) 0.383578 (1,4,3) 0.375040
(1,3,4): (1,2,4) -0.469192 (1,3,3) -0.383578 (1,3,5) 0.411084 (1,4,4) 0.812990
(1,3,5): (1,2,5) -0.718892 (1,3,4) -0.411084 (1,3,6) 0.150438 (1,4,5) 1.43993
(1,3,6): (1,2,6) -0.806099 (1,3,5) -0.150438 (1,3,7) -0.146929 (1,4,6) 1.59939
(1,3,7): (1,2,7) -0.720445 (1,3,6) 0.146929 (1,3,8) -0.402877 (1,4,7) 1.44175
(1,3,8): (1,2,8) -0.474436 (1,3,7) 0.402877 (1,3,9) -0.361966 (1,4,8) 0.819119
(1,3,9): (1,2,9) -0.265242 (1,3,8) 0.361966 (1,3,10) -0.191806 (1,4,9) 0.393324
(1,3,10): (1,2,10) -0.159511 (1,3,9) 0.191806 (1,4,10) 0.210229
(1,4,1): (1,3,1) -7.761877E-02 (1,4,2) 0.190999 (1,5,1) 3.041191E-02
(1,4,2): (1,3,2) -0.159213 (1,4,1) -0.190999 (1,4,3) 0.459841 (1,5,2) 8.309395E-02
(1,4,3): (1,3,3) -0.375040 (1,4,2) -0.459841 (1,4,4) 0.821564 (1,5,3) 0.292249
(1,4,4): (1,3,4) -0.812990 (1,4,3) -0.821564 (1,4,5) 1.03566 (1,5,4) 0.984413
(1,4,5): (1,3,5) -1.43993 (1,4,4) -1.03566 (1,4,6) 0.308005 (1,5,5) 2.65502
(1,4,6): (1,3,6) -1.59939 (1,4,5) -0.308005 (1,4,7) -0.302693 (1,5,6) 2.74092
(1,4,7): (1,3,7) -1.44175 (1,4,6) 0.302693 (1,4,8) -1.02307 (1,5,7) 2.65574
(1,4,8): (1,3,8) -0.819119 (1,4,7) 1.02307 (1,4,9) -0.787632 (1,5,8) 0.986557
(1,4,9): (1,3,9) -0.393324 (1,4,8) 0.787632 (1,4,10) -0.374868 (1,5,9) 0.298643
(1,4,10): (1,3,10) -0.210229 (1,4,9) 0.374868 (1,5,10) 0.103761
(1,5,1): (1,4,1) -3.041191E-02 (1,5,2) 0.243764 (1,6,1) -0.115023
(1,5,2): (1,4,2) -8.309395E-02 (1,5,1) -0.243764 (1,5,3) 0.669766 (1,6,2) -0.235133
(1,5,3): (1,4,3) -0.292249 (1,5,2) -0.669766 (1,5,4) 1.51721 (1,6,3) -0.428390
(1,5,4): (1,4,4) -0.984413 (1,5,3) -1.51721 (1,5,5) 2.70703 (1,6,4) -2.142175E-02
(1,5,5): (1,4,5) -2.65502 (1,5,4) -2.70703 (1,5,6) 0.392292 (1,6,5) 5.27703
(1,5,6): (1,4,6) -2.74092 (1,5,5) -0.392292 (1,5,7) -0.386266 (1,6,6) 3.88856
(1,5,7): (1,4,7) -2.65574 (1,5,6) 0.386266 (1,5,8) -2.69280 (1,6,7) 5.27496
(1,5,8): (1,4,8) -0.986557 (1,5,7) 2.69280 (1,5,9) -1.47874 (1,6,8) -2.929557E-02
(1,5,9): (1,4,9) -0.298643 (1,5,8) 1.47874 (1,5,10) -0.570266 (1,6,9) -0.454794
(1,5,10): (1,4,10) -0.103761 (1,5,9) 0.570266 (1,6,10) -0.314283
(1,6,1): (1,5,1) 0.115023 (1,6,2) 0.123644 (1,7,1) -0.271337
(1,6,2): (1,5,2) 0.235133 (1,6,1) -0.123644 (1,6,3) 0.476056 (1,7,2) -0.696772
(1,6,3): (1,5,3) 0.428390 (1,6,2) -0.476056 (1,6,4) 1.93004 (1,7,3) -2.11745
(1,6,4): (1,5,4) 2.142175E-02 (1,6,3) -1.93004 (1,6,5) 8.13047 (1,7,4) -6.49721
(1,6,5): (1,5,5) -5.27703 (1,6,4) -8.13047 (1,6,6) -0.948992 (1,7,5) -20.9061
(1,6,6): (1,5,6) -3.88856 (1,6,5) 0.948992 (1,6,7) 0.953063 (1,7,6) -33.1541
(1,6,7): (1,5,7) -5.27496 (1,6,6) -0.953063 (1,6,8) -8.12190 (1,7,7) -20.9106
(1,6,8): (1,5,8) 2.929557E-02 (1,6,7) 8.12190 (1,6,9) -1.91018 (1,7,8) -6.51351
(1,6,9): (1,5,9) 0.454794 (1,6,8) 1.91018 (1,6,10) -0.429598 (1,7,9) -2.17475
(1,6,10): (1,5,10) 0.314283 (1,6,9) 0.429598 (1,7,10) -0.889634
(1,7,1): (1,6,1) 0.271337 (1,7,2) -0.300271 (1,8,1) -0.165002
(1,7,2): (1,6,2) 0.696772 (1,7,1) 0.300271 (1,7,3) -0.930420 (1,8,2) -0.439323
(1,7,3): (1,6,3) 2.11745 (1,7,2) 0.930420 (1,7,4) -2.31660 (1,8,3) -1.41934
(1,7,4): (1,6,4) 6.49721 (1,7,3) 2.31660 (1,7,5) -5.08539 (1,8,4) -4.67921
(1,7,5): (1,6,5) 20.9061 (1,7,4) 5.08539 (1,7,6) -11.1335 (1,8,5) -15.7169
(1,7,6): (1,6,6) 33.1541 (1,7,5) 11.1335 (1,7,7) 11.1337 (1,8,6) -56.0114
(1,7,7): (1,6,7) 20.9106 (1,7,6) -11.1337 (1,7,8) 5.08171 (1,8,7) -15.7195
(1,7,8): (1,6,8) 6.51351 (1,7,7) -5.08171 (1,7,9) 2.29484 (1,8,8) -4.68888
(1,7,9): (1,6,9) 2.17475 (1,7,8) -2.29484 (1,7,10) 0.840632 (1,8,9) -1.45345
(1,7,10): (1,6,10) 0.889634 (1,7,9) -0.840632 (1,8,10) -0.556088
(1,8,1): (1,7,1) 0.165002 (1,8,2) -0.574966 (1,9,1) 0.141786
(1,8,2): (1,7,2) 0.439323 (1,8,1) 0.574966 (1,8,3) -1.91535 (1,9,2) 0.409982
(1,8,3): (1,7,3) 1.41934 (1,8,2) 1.91535 (1,8,4) -5.60761 (1,9,3) 1.38381
(1,8,4): (1,7,4) 4.67921 (1,8,3) 5.60761 (1,8,5) -16.1755 (1,9,4) 4.64635
(1,8,5): (1,7,5) 15.7169 (1,8,4) 16.1755 (1,8,6) -48.7156 (1,9,5) 15.6935
(1,8,6): (1,7,6) 56.0114 (1,8,5) 48.7156 (1,8,7) 48.7119 (1,9,6) 55.9883
(1,8,7): (1,7,7) 15.7195 (1,8,6) -48.7119 (1,8,8) 16.1629 (1,9,7) 15.6949
(1,8,8): (1,7,8) 4.68888 (1,8,7) -16.1629 (1,8,9) 5.55925 (1,9,8) 4.65312
(1,8,9): (1,7,9) 1.45345 (1,8,8) -5.55925 (1,8,10) 1.74061 (1,9,9) 1.41143
(1,8,10): (1,7,10) 0.556088 (1,8,9) -1.74061 (1,9,10) 0.514427
(1,9,1): (1,8,1) -0.141786 (1,9,2) -0.306325 (1,10,1) 0.256208
(1,9,2): (1,8,2) -0.409982 (1,9,1) 0.306325 (1,9,3) -0.936279 (1,10,2) 0.677057
(1,9,3): (1,8,3) -1.38381 (1,9,2) 0.936279 (1,9,4) -2.31280 (1,10,3) 2.09221
(1,9,4): (1,8,4) -4.64635 (1,9,3) 2.31280 (1,9,5) -5.07323 (1,10,4) 6.46883
(1,9,5): (1,8,5) -15.6935 (1,9,4) 5.07323 (1,9,6) -11.1252 (1,10,5) 20.8223
(1,9,6): (1,8,6) -55.9883 (1,9,5) 11.1252 (1,9,7) 11.1243 (1,10,6) 33.0634
(1,9,7): (1,8,7) -15.6949 (1,9,6) -11.1243 (1,9,8) 5.06762 (1,10,7) 20.8260
(1,9,8): (1,8,8) -4.65312 (1,9,7) -5.06762 (1,9,9) 2.28732 (1,10,8) 6.48321
(1,9,9): (1,8,9) -1.41143 (1,9,8) -2.28732 (1,9,10) 0.840608 (1,10,9) 2.14524
(1,9,10): (1,8,10) -0.514427 (1,9,9) -0.840608 (1,10,10) 0.861709
(1,10,1): (1,9,1) -0.256208 (1,10,2) 0.113103 (1,11,1) 0.111191
(1,10,2): (1,9,2) -0.677057 (1,10,1) -0.113103 (1,10,3) 0.465047 (1,11,2) 0.228109
(1,10,3): (1,9,3) -2.09221 (1,10,2) -0.465047 (1,10,4) 1.93172 (1,11,3) 0.413669
(1,10,4): (1,9,4) -6.46883 (1,10,3) -1.93172 (1,10,5) 8.09490 (1,11,4) -4.394431E-03
(1,10,5): (1,9,5) -20.8223 (1,10,4) -8.09490 (1,10,6) -0.941304 (1,11,5) -5.26678
(1,10,6): (1,9,6) -33.0634 (1,10,5) 0.941304 (1,10,7) 0.943694 (1,11,6) -3.88332
(1,10,7): (1,9,7) -20.8260 (1,10,6) -0.943694 (1,10,8) -8.08946 (1,11,7) -5.26482
(1,10,8): (1,9,8) -6.48321 (1,10,7) 8.08946 (1,10,9) -1.91794 (1,11,8) 3.055743E-03
(1,10,9): (1,9,9) -2.14524 (1,10,8) 1.91794 (1,10,10) -0.428404 (1,11,9) 0.439042
(1,10,10): (1,9,10) -0.861709 (1,10,9) 0.428404 (1,11,10) 0.304802
(1,11,1): (1,10,1) -0.111191 (1,11,2) 0.230023 (1,12,1) -2.418951E-02
(1,11,2): (1,10,2) -0.228109 (1,11,1) -0.230023 (1,11,3) 0.651035 (1,12,2) -7.666825E-02
(1,11,3): (1,10,3) -0.413669 (1,11,2) -0.651035 (1,11,4) 1.50755 (1,12,3) -0.288540
(1,11,4): (1,10,4) 4.394431E-03 (1,11,3) -1.50755 (1,11,5) 2.70934 (1,12,4) -0.990382
(1,11,5): (1,10,5) 5.26678 (1,11,4) -2.70934 (1,11,6) 0.395117 (1,12,5) -2.67341
(1,11,6): (1,10,6) 3.88332 (1,11,5) -0.395117 (1,11,7) -0.390862 (1,12,6) -2.76561
(1,11,7): (1,10,7) 5.26482 (1,11,6) 0.390862 (1,11,8) -2.69842 (1,12,7) -2.67380
(1,11,8): (1,10,8) -3.055743E-03 (1,11,7) 2.69842 (1,11,9) -1.47577 (1,12,8) -0.991692
(1,11,9): (1,10,9) -0.439042 (1,11,8) 1.47577 (1,11,10) -0.562804 (1,12,9) -0.293145
(1,11,10): (1,10,10) -0.304802 (1,11,9) 0.562804 (1,12,10) -9.430536E-02
(1,12,1): (1,11,1) 2.418951E-02 (1,12,2) 0.177465 (1,13,1) -6.675187E-02
(1,12,2): (1,11,2) 7.666825E-02 (1,12,1) -0.177465 (1,12,3) 0.438413 (1,13,2) -0.145226
(1,12,3): (1,11,3) 0.288540 (1,12,2) -0.438413 (1,12,4) 0.802282 (1,13,3) -0.357409
(1,12,4): (1,11,4) 0.990382 (1,12,3) -0.802282 (1,12,5) 1.02577 (1,13,4) -0.795055
(1,12,5): (1,11,5) 2.67341 (1,12,4) -1.02577 (1,12,6) 0.304678 (1,13,5) -1.42569
(1,12,6): (1,11,6) 2.76561 (1,12,5) -0.304678 (1,12,7) -0.300815 (1,13,6) -1.58700
(1,12,7): (1,11,7) 2.67380 (1,12,6) 0.300815 (1,12,8) -1.01594 (1,13,7) -1.42703
(1,12,8): (1,11,8) 0.991692 (1,12,7) 1.01594 (1,12,9) -0.774024 (1,13,8) -0.799851
(1,12,9): (1,11,9) 0.293145 (1,12,8) 0.774024 (1,12,10) -0.363441 (1,13,9) -0.372662
(1,12,10): (1,11,10) 9.430536E-02 (1,12,9) 0.363441 (1,13,10) -0.190424
(1,13,1): (1,12,1) 6.675187E-02 (1,13,2) 9.896547E-02 (1,14,1) -5.316180E-02
(1,13,2): (1,12,2) 0.145226 (1,13,1) -9.896547E-02 (1,13,3) 0.226061 (1,14,2) -0.105642
(1,13,3): (1,12,3) 0.357409 (1,13,2) -0.226061 (1,13,4) 0.364605 (1,14,3) -0.230840
(1,13,4): (1,12,4) 0.795055 (1,13,3) -0.364605 (1,13,5) 0.397509 (1,14,4) -0.444884
(1,13,5): (1,12,5) 1.42569 (1,13,4) -0.397509 (1,13,6) 0.145268 (1,14,5) -0.691867
(1,13,6): (1,12,6) 1.58700 (1,13,5) -0.145268 (1,13,7) -0.142735 (1,14,6) -0.778169
(1,13,7): (1,12,7) 1.42703 (1,13,6) 0.142735 (1,13,8) -0.391183 (1,14,7) -0.693023
(1,13,8): (1,12,8) 0.799851 (1,13,7) 0.391183 (1,13,9) -0.346941 (1,14,8) -0.448985
(1,13,9): (1,12,9) 0.372662 (1,13,8) 0.346941 (1,13,10) -0.181219 (1,14,9) -0.243437
(1,13,10): (1,12,10) 0.190424 (1,13,9) 0.181219 (1,14,10) -0.140756
(1,14,1): (1,13,1) 5.316180E-02 (1,14,2) 4.648871E-02 (1,15,1) -2.575692E-02
(1,14,2): (1,13,2) 0.105642 (1,14,1) -4.648871E-02 (1,14,3) 0.100869 (1,15,2) -4.886152E-02
(1,14,3): (1,13,3) 0.230840 (1,14,2) -0.100869 (1,14,4) 0.150731 (1,15,3) -0.100805
(1,14,4): (1,13,4) 0.444884 (1,14,3) -0.150731 (1,14,5) 0.151231 (1,15,4) -0.182065
(1,14,5): (1,13,5) 0.691867 (1,14,4) -0.151231 (1,14,6) 5.949207E-02 (1,15,5) -0.267008
(1,14,6): (1,13,6) 0.778169 (1,14,5) -5.949207E-02 (1,14,7) -5.811032E-02 (1,15,6) -0.299731
(1,14,7): (1,13,7) 0.693023 (1,14,6) 5.811032E-02 (1,14,8) -0.147859 (1,15,7) -0.267597
(1,14,8): (1,13,8) 0.448985 (1,14,7) 0.147859 (1,14,9) -0.141599 (1,15,8) -0.184131
(1,14,9): (1,13,9) 0.243437 (1,14,8) 0.141599 (1,14,10) -7.860118E-02 (1,15,9) -0.107017
(1,14,10): (1,13,10) 0.140756 (1,14,9) 7.860118E-02 (1,15,10) -6.560714E-02
(1,15,1): (1,14,1) 2.575692E-02 (1,15,2) 2.338465E-02
(1,15,2): (1,14,2) 4.886152E-02 (1,15,1) -2.338465E-02 (1,15,3) 4.892492E-02
(1,15,3): (1,14,3) 0.100805 (1,15,2) -4.892492E-02 (1,15,4) 6.949670E-02
(1,15,4): (1,14,4) 0.182065 (1,15,3) -6.949670E-02 (1,15,5) 6.638381E-02
(1,15,5): (1,14,5) 0.267008 (1,15,4) -6.638381E-02 (1,15,6) 2.684650E-02
(1,15,6): (1,14,6) 0.299731 (1,15,5) -2.684650E-02 (1,15,7) -2.605230E-02
(1,15,7): (1,14,7) 0.267597 (1,15,6) 2.605230E-02 (1,15,8) -6.449184E-02
(1,15,8): (1,14,8) 0.184131 (1,15,7) 6.449184E-02 (1,15,9) -6.451711E-02
(1,15,9): (1,14,9) 0.107017 (1,15,8) 6.451711E-02 (1,15,10) -3.720344E-02
(1,15,10): (1,14,10) 6.560714E-02 (1,15,9) 3.720344E-02

 WEL PACKAGE (WEL-1) FLOW RATES   PERIOD      2   STEP       54
 ----------------------------------------------------------------------------------------
   NUMBER   CELLID                    RATE       NAME                                    
 ----------------------------------------------------------------------------------------
     1      (1,8,6)              -209.57972      WEL                                     
 ----------------------------------------------------------------------------------------




 DRN PACKAGE (DRN-0) FLOW RATES   PERIOD      2   STEP       54
 ----------------------------------------------------------------------------------------
   NUMBER   CELLID                    RATE       NAME                                    
 ----------------------------------------------------------------------------------------
     1      (1,1,1)               0.0000000      SURF                                    
     2      (1,1,2)               0.0000000      SURF                                    
     3      (1,1,3)               0.0000000      SURF                                    
     4      (1,1,4)               0.0000000      SURF                                    
     5      (1,1,5)               0.0000000      SURF                                    
     6      (1,1,6)               0.0000000      SURF                                    
     7      (1,1,7)               0.0000000      SURF                                    
     8      (1,1,8)               0.0000000      SURF                                    
     9      (1,1,9)               0.0000000      SURF                                    
     10     (1,1,10)              0.0000000      SURF                                    
     11     (1,2,1)               0.0000000      SURF                                    
     12     (1,2,2)               0.0000000      SURF                                    
     13     (1,2,3)               0.0000000      SURF                                    
     14     (1,2,4)               0.0000000      SURF                                    
     15     (1,2,5)               0.0000000      SURF                                    
     16     (1,2,6)               0.0000000      SURF                                    
     17     (1,2,7)               0.0000000      SURF                                    
     18     (1,2,8)               0.0000000      SURF                                    
     19     (1,2,9)               0.0000000      SURF                                    
     20     (1,2,10)              0.0000000      SURF                                    
     21     (1,3,1)               0.0000000      SURF                                    
     22     (1,3,2)               0.0000000      SURF                                    
     23     (1,3,3)               0.0000000      SURF                                    
     24     (1,3,4)               0.0000000      SURF                                    
     25     (1,3,5)               0.0000000      SURF                                    
     26     (1,3,6)               0.0000000      SURF                                    
     27     (1,3,7)               0.0000000      SURF                                    
     28     (1,3,8)               0.0000000      SURF                                    
     29     (1,3,9)               0.0000000      SURF                                    
     30     (1,3,10)              0.0000000      SURF                                    
     31     (1,4,1)               0.0000000      SURF                                    
     32     (1,4,2)               0.0000000      SURF                                    
     33     (1,4,3)               0.0000000      SURF                                    
     34     (1,4,4)               0.0000000      SURF                                    
     35     (1,4,5)               0.0000000      SURF                                    
     36     (1,4,6)               0.0000000      SURF                                    
     37     (1,4,7)               0.0000000      SURF                                    
     38     (1,4,8)               0.0000000      SURF                                    
     39     (1,4,9)               0.0000000      SURF                                    
     40     (1,4,10)              0.0000000      SURF                                    
     41     (1,5,1)               0.0000000      SURF                                    
     42     (1,5,2)               0.0000000      SURF                                    
     43     (1,5,3)               0.0000000      SURF                                    
     44     (1,5,4)               0.0000000      SURF                                    
     45     (1,5,5)               0.0000000      SURF                                    
     46     (1,5,6)               0.0000000      SURF                                    
     47     (1,5,7)               0.0000000      SURF                                    
     48     (1,5,8)               0.0000000      SURF                                    
     49     (1,5,9)               0.0000000      SURF                                    
     50     (1,5,10)              0.0000000      SURF                                    
     51     (1,6,1)               0.0000000      SURF                                    
     52     (1,6,2)               0.0000000      SURF                                    
     53     (1,6,3)               0.0000000      SURF                                    
     54     (1,6,4)               0.0000000      SURF                                    
     55     (1,6,5)               0.0000000      SURF                                    
     56     (1,6,6)               0.0000000      SURF                                    
     57     (1,6,7)              -3.43643478E-07 SURF                                    
     58     (1,6,8)               0.0000000      SURF                                    
     59     (1,6,9)               0.0000000      SURF                                    
     60     (1,6,10)              0.0000000      SURF                                    
     61     (1,7,1)               0.0000000      SURF                                    
     62     (1,7,2)               0.0000000      SURF                                    
     63     (1,7,3)               0.0000000      SURF                                    
     64     (1,7,4)               0.0000000      SURF                                    
     65     (1,7,5)               0.0000000      SURF                                    
     66     (1,7,6)               0.0000000      SURF                                    
     67     (1,7,7)               0.0000000      SURF                                    
     68     (1,7,8)               0.0000000      SURF                                    
     69     (1,7,9)               0.0000000      SURF                                    
     70     (1,7,10)              0.0000000      SURF                                    
     71     (1,8,1)               0.0000000      SURF                                    
     72     (1,8,2)               0.0000000      SURF                                    
     73     (1,8,3)               0.0000000      SURF                                    
     74     (1,8,4)               0.0000000      SURF                                    
     75     (1,8,5)               0.0000000      SURF                                    
     76     (1,8,6)               0.0000000      SURF                                    
     77     (1,8,7)               0.0000000      SURF                                    
     78     (1,8,8)               0.0000000      SURF                                    
     79     (1,8,9)               0.0000000      SURF                                    
     80     (1,8,10)              0.0000000      SURF                                    
     81     (1,9,1)               0.0000000      SURF                                    
     82     (1,9,2)               0.0000000      SURF                                    
     83     (1,9,3)               0.0000000      SURF                                    
     84     (1,9,4)               0.0000000      SURF                                    
     85     (1,9,5)               0.0000000      SURF                                    
     86     (1,9,6)               0.0000000      SURF                                    
     87     (1,9,7)               0.0000000      SURF                                    
     88     (1,9,8)               0.0000000      SURF                                    
     89     (1,9,9)               0.0000000      SURF                                    
     90     (1,9,10)              0.0000000      SURF                                    
     91     (1,10,1)              0.0000000      SURF                                    
     92     (1,10,2)              0.0000000      SURF                                    
     93     (1,10,3)              0.0000000      SURF                                    
     94     (1,10,4)              0.0000000      SURF                                    
     95     (1,10,5)              0.0000000      SURF                                    
     96     (1,10,6)              0.0000000      SURF                                    
     97     (1,10,7)              0.0000000      SURF                                    
     98     (1,10,8)              0.0000000      SURF                                    
     99     (1,10,9)              0.0000000      SURF                                    
    100     (1,10,10)             0.0000000      SURF                                    
    101     (1,11,1)              0.0000000      SURF                                    
    102     (1,11,2)              0.0000000      SURF                                    
    103     (1,11,3)              0.0000000      SURF                                    
    104     (1,11,4)              0.0000000      SURF                                    
    105     (1,11,5)              0.0000000      SURF                                    
    106     (1,11,6)              0.0000000      SURF                                    
    107     (1,11,7)              0.0000000      SURF                                    
    108     (1,11,8)              0.0000000      SURF                                    
    109     (1,11,9)              0.0000000      SURF                                    
    110     (1,11,10)             0.0000000      SURF                                    
    111     (1,12,1)              0.0000000      SURF                                    
    112     (1,12,2)              0.0000000      SURF                                    
    113     (1,12,3)              0.0000000      SURF                                    
    114     (1,12,4)              0.0000000      SURF                                    
    115     (1,12,5)              0.0000000      SURF                                    
    116     (1,12,6)              0.0000000      SURF                                    
    117     (1,12,7)              0.0000000      SURF                                    
    118     (1,12,8)              0.0000000      SURF                                    
    119     (1,12,9)              0.0000000      SURF                                    
    120     (1,12,10)             0.0000000      SURF                                    
    121     (1,13,1)              0.0000000      SURF                                    
    122     (1,13,2)              0.0000000      SURF                                    
    123     (1,13,3)              0.0000000      SURF                                    
    124     (1,13,4)              0.0000000      SURF                                    
    125     (1,13,5)              0.0000000      SURF                                    
    126     (1,13,6)              0.0000000      SURF                                    
    127     (1,13,7)              0.0000000      SURF                                    
    128     (1,13,8)              0.0000000      SURF                                    
    129     (1,13,9)              0.0000000      SURF                                    
    130     (1,13,10)             0.0000000      SURF                                    
    131     (1,14,1)              0.0000000      SURF                                    
    132     (1,14,2)              0.0000000      SURF                                    
    133     (1,14,3)              0.0000000      SURF                                    
    134     (1,14,4)              0.0000000      SURF                                    
    135     (1,14,5)              0.0000000      SURF                                    
    136     (1,14,6)              0.0000000      SURF                                    
    137     (1,14,7)              0.0000000      SURF                                    
    138     (1,14,8)              0.0000000      SURF                                    
    139     (1,14,9)              0.0000000      SURF                                    
    140     (1,14,10)             0.0000000      SURF                                    
    141     (1,15,1)              0.0000000      SURF                                    
    142     (1,15,2)              0.0000000      SURF                                    
    143     (1,15,3)              0.0000000      SURF                                    
    144     (1,15,4)              0.0000000      SURF                                    
    145     (1,15,5)              0.0000000      SURF                                    
    146     (1,15,6)              0.0000000      SURF                                    
    147     (1,15,7)              0.0000000      SURF                                    
    148     (1,15,8)              0.0000000      SURF                                    
    149     (1,15,9)              0.0000000      SURF                                    
    150     (1,15,10)             0.0000000      SURF                                    
 ----------------------------------------------------------------------------------------




 API PACKAGE (MAR) FLOW RATES   PERIOD      2   STEP       54
 -----------------------------------------------
   NUMBER   CELLID                    RATE      
 -----------------------------------------------
     1      (1,6,5)               35.260513     
     2      (1,6,6)               35.260513     
     3      (1,6,7)               35.260513     
     4      (1,10,5)              34.599395     
     5      (1,10,6)              34.599395     
     6      (1,10,7)              34.599395     
 -----------------------------------------------



1
  HEAD IN LAYER   1 AT END OF TIME STEP  54 IN STRESS PERIOD    2
  ---------------------------------------------------------------------------

            1           2           3           4           5           6           7           8           9          10
 ........................................................................................................................
   1   4.0767E-03  6.8685E-03  1.2580E-02  2.0494E-02  2.7916E-02  3.0913E-02  2.8032E-02  2.0872E-02  1.3610E-02  9.3635E-03
   2   7.1864E-03  1.2506E-02  2.3769E-02  4.0157E-02  5.6279E-02  6.2617E-02  5.6474E-02  4.0800E-02  2.5562E-02  1.6969E-02
   3   1.3468E-02  2.4379E-02  4.8645E-02  8.6673E-02  0.1273      0.1421      0.1276      8.7831E-02  5.1949E-02  3.2868E-02
   4   2.1213E-02  4.0237E-02  8.5830E-02  0.1666      0.2675      0.2974      0.2680      0.1684      9.0927E-02  5.3778E-02
   5   2.4247E-02  4.8506E-02  0.1147      0.2626      0.5199      0.5570      0.5205      0.2645      0.1204      6.4088E-02
   6   1.2773E-02  2.5106E-02  7.2370E-02  0.2605      0.9996      0.9134       1.000      0.2616      7.5498E-02  3.2860E-02
   7  -1.4326E-02 -4.4396E-02 -0.1379     -0.3728     -0.9010      -2.125     -0.9010     -0.3731     -0.1403     -5.5812E-02
   8  -3.0850E-02 -8.8525E-02 -0.2818     -0.8588      -2.628      -9.237      -2.629     -0.8602     -0.2878     -0.1117    
   9  -1.6648E-02 -4.7331E-02 -0.1414     -0.3760     -0.9031      -2.126     -0.9032     -0.3766     -0.1445     -5.9980E-02
  10   8.9500E-03  2.0237E-02  6.6435E-02  0.2548      0.9913      0.9056      0.9915      0.2555      6.8517E-02  2.5968E-02
  11   2.0047E-02  4.2951E-02  0.1074      0.2544      0.5121      0.5496      0.5125      0.2558      0.1119      5.6278E-02
  12   1.7633E-02  3.5317E-02  7.8815E-02  0.1578      0.2578      0.2874      0.2582      0.1591      8.2945E-02  4.6900E-02
  13   1.0969E-02  2.0845E-02  4.3354E-02  7.9527E-02  0.1188      0.1331      0.1191      8.0403E-02  4.5985E-02  2.7946E-02
  14   5.6589E-03  1.0303E-02  2.0369E-02  3.5389E-02  5.0436E-02  5.6352E-02  5.0574E-02  3.5862E-02  2.1753E-02  1.3910E-02
  15   3.0847E-03  5.4219E-03  1.0309E-02  1.7247E-02  2.3870E-02  2.6547E-02  2.3949E-02  1.7515E-02  1.1075E-02  7.3584E-03

 HEAD WILL BE SAVED ON UNIT 1100 AT END OF TIME STEP   54, STRESS PERIOD    2


  VOLUME BUDGET FOR ENTIRE MODEL AT END OF TIME STEP   54, STRESS PERIOD   2
  ---------------------------------------------------------------------------------------------------

     CUMULATIVE VOLUME      L**3       RATES FOR THIS TIME STEP      L**3/T          PACKAGE NAME    
     ------------------                 ------------------------                     ----------------

           IN:                                      IN:
           ---                                      ---
              STO-SS =          22.1370                STO-SS =       1.2130E-02     STORAGE                          
              STO-SY =       55592.8790                STO-SY =          25.8695     STORAGE                          
                 WEL =           0.0000                   WEL =           0.0000     WEL-1                            
                 DRN =           0.0000                   DRN =           0.0000     DRN-0                            
                 API =      109754.0630                   API =         209.5797     MAR                              
                 CHD =       2.0279E-08                   CHD =           0.0000     CHD_0                            

            TOTAL IN =      165369.0790              TOTAL IN =         235.4613

          OUT:                                     OUT:
          ----                                     ----
              STO-SS =          18.4756                STO-SS =       1.3109E-02     STORAGE                          
              STO-SY =       36027.7340                STO-SY =          25.8685     STORAGE                          
                 WEL =      129322.8693                   WEL =         209.5797     WEL-1                            
                 DRN =       1.8164E-04                   DRN =       3.4364E-07     DRN-0                            
                 API =           0.0000                   API =           0.0000     MAR                              
                 CHD =       2.0705E-08                   CHD =           0.0000     CHD_0                            

           TOTAL OUT =      165369.0790             TOTAL OUT =         235.4613

            IN - OUT =      -1.2320E-06              IN - OUT =       8.7547E-10

 PERCENT DISCREPANCY =          -0.00     PERCENT DISCREPANCY =           0.00




         TIME SUMMARY AT END OF TIME STEP   54 IN STRESS PERIOD    2
                    SECONDS     MINUTES      HOURS       DAYS        YEARS
                    -----------------------------------------------------------
   TIME STEP LENGTH 8.64000E+05  14400.      240.00      10.000     2.73785E-02
 STRESS PERIOD TIME 4.66560E+07 7.77600E+05  12960.      540.00      1.4784    
         TOTAL TIME 4.67424E+07 7.79040E+05  12984.      541.00      1.4812    


end timestep


start timestep kper="2" kstp="55" mode="normal"

 UBDSV1 SAVING           STO-SS ON UNIT   1099 AT TIME STEP     55, STRESS PERIOD      2
 UBDSV1 SAVING           STO-SY ON UNIT   1099 AT TIME STEP     55, STRESS PERIOD      2
 UBDSV1 SAVING     FLOW-JA-FACE ON UNIT   1099 AT TIME STEP     55, STRESS PERIOD      2
 UBDSV06 SAVING       DATA-SPDIS IN MODEL GWF              PACKAGE NPF             CONNECTED TO MODEL GWF              PACKAGE NPF              ON UNIT   1099 AT TIME STEP     55, STRESS PERIOD      2
 UBDSV06 SAVING              WEL IN MODEL GWF              PACKAGE GWF             CONNECTED TO MODEL GWF              PACKAGE WEL-1            ON UNIT   1099 AT TIME STEP     55, STRESS PERIOD      2
 UBDSV06 SAVING              DRN IN MODEL GWF              PACKAGE GWF             CONNECTED TO MODEL GWF              PACKAGE DRN-0            ON UNIT   1099 AT TIME STEP     55, STRESS PERIOD      2
 UBDSV06 SAVING              API IN MODEL GWF              PACKAGE GWF             CONNECTED TO MODEL GWF              PACKAGE MAR              ON UNIT   1099 AT TIME STEP     55, STRESS PERIOD      2
 UBDSV06 SAVING              CHD IN MODEL GWF              PACKAGE GWF             CONNECTED TO MODEL GWF              PACKAGE CHD_0            ON UNIT   1099 AT TIME STEP     55, STRESS PERIOD      2

    CALCULATED INTERCELL FLOW FOR PERIOD 2 STEP 55
(1,1,1): (1,1,2) 2.928325E-02 (1,2,1) 3.241197E-02
(1,1,2): (1,1,1) -2.928325E-02 (1,1,3) 5.963376E-02 (1,2,2) 5.824100E-02
(1,1,3): (1,1,2) -5.963376E-02 (1,1,4) 8.223384E-02 (1,2,3) 0.114851
(1,1,4): (1,1,3) -8.223384E-02 (1,1,5) 7.685522E-02 (1,2,4) 0.201163
(1,1,5): (1,1,4) -7.685522E-02 (1,1,6) 3.102452E-02 (1,2,5) 0.289838
(1,1,6): (1,1,5) -3.102452E-02 (1,1,7) -2.973709E-02 (1,2,6) 0.323992
(1,1,7): (1,1,6) 2.973709E-02 (1,1,8) -7.400523E-02 (1,2,7) 0.290691
(1,1,8): (1,1,7) 7.400523E-02 (1,1,9) -7.521731E-02 (1,2,8) 0.203997
(1,1,9): (1,1,8) 7.521731E-02 (1,1,10) -4.408967E-02 (1,2,9) 0.122874
(1,1,10): (1,1,9) 4.408967E-02 (1,2,10) 7.868601E-02
(1,2,1): (1,1,1) -3.241197E-02 (1,2,2) 5.511148E-02 (1,3,1) 6.480786E-02
(1,2,2): (1,1,2) -5.824100E-02 (1,2,1) -5.511148E-02 (1,2,3) 0.116244 (1,3,2) 0.121559
(1,2,3): (1,1,3) -0.114851 (1,2,2) -0.116244 (1,2,4) 0.168518 (1,3,3) 0.253595
(1,2,4): (1,1,4) -0.201163 (1,2,3) -0.168518 (1,2,5) 0.165422 (1,3,4) 0.474131
(1,2,5): (1,1,5) -0.289838 (1,2,4) -0.165422 (1,2,6) 6.509158E-02 (1,3,5) 0.725032
(1,2,6): (1,1,6) -0.323992 (1,2,5) -6.509158E-02 (1,2,7) -6.295263E-02 (1,3,6) 0.812738
(1,2,7): (1,1,7) -0.290691 (1,2,6) 6.295263E-02 (1,2,8) -0.160588 (1,3,7) 0.726672
(1,2,8): (1,1,8) -0.203997 (1,2,7) 0.160588 (1,2,9) -0.156302 (1,3,8) 0.479615
(1,2,9): (1,1,9) -0.122874 (1,2,8) 0.156302 (1,2,10) -8.826244E-02 (1,3,9) 0.269396
(1,2,10): (1,1,10) -7.868601E-02 (1,2,9) 8.826244E-02 (1,3,10) 0.163049
(1,3,1): (1,2,1) -6.480786E-02 (1,3,2) 0.111857 (1,4,1) 7.849142E-02
(1,3,2): (1,2,2) -0.121559 (1,3,1) -0.111857 (1,3,3) 0.248274 (1,4,2) 0.159962
(1,3,3): (1,2,3) -0.253595 (1,3,2) -0.248274 (1,3,4) 0.388870 (1,4,3) 0.375559
(1,3,4): (1,2,4) -0.474131 (1,3,3) -0.388870 (1,3,5) 0.415572 (1,4,4) 0.813576
(1,3,5): (1,2,5) -0.725032 (1,3,4) -0.415572 (1,3,6) 0.152241 (1,4,5) 1.44135
(1,3,6): (1,2,6) -0.812738 (1,3,5) -0.152241 (1,3,7) -0.148470 (1,4,6) 1.60128
(1,3,7): (1,2,7) -0.726672 (1,3,6) 0.148470 (1,3,8) -0.406881 (1,4,7) 1.44323
(1,3,8): (1,2,8) -0.479615 (1,3,7) 0.406881 (1,3,9) -0.366288 (1,4,8) 0.819858
(1,3,9): (1,2,9) -0.269396 (1,3,8) 0.366288 (1,3,10) -0.194531 (1,4,9) 0.394109
(1,3,10): (1,2,10) -0.163049 (1,3,9) 0.194531 (1,4,10) 0.211308
(1,4,1): (1,3,1) -7.849142E-02 (1,4,2) 0.193354 (1,5,1) 2.799072E-02
(1,4,2): (1,3,2) -0.159962 (1,4,1) -0.193354 (1,4,3) 0.464057 (1,5,2) 7.869933E-02
(1,4,3): (1,3,3) -0.375559 (1,4,2) -0.464057 (1,4,4) 0.826943 (1,5,3) 0.284527
(1,4,4): (1,3,4) -0.813576 (1,4,3) -0.826943 (1,4,5) 1.04099 (1,5,4) 0.974259
(1,4,5): (1,3,5) -1.44135 (1,4,4) -1.04099 (1,4,6) 0.310284 (1,5,5) 2.64605
(1,4,6): (1,3,6) -1.60128 (1,4,5) -0.310284 (1,4,7) -0.304645 (1,5,6) 2.73299
(1,4,7): (1,3,7) -1.44323 (1,4,6) 0.304645 (1,4,8) -1.02783 (1,5,7) 2.64673
(1,4,8): (1,3,8) -0.819858 (1,4,7) 1.02783 (1,4,9) -0.791923 (1,5,8) 0.976227
(1,4,9): (1,3,9) -0.394109 (1,4,8) 0.791923 (1,4,10) -0.377302 (1,5,9) 0.290325
(1,4,10): (1,3,10) -0.211308 (1,4,9) 0.377302 (1,5,10) 9.772116E-02
(1,5,1): (1,4,1) -2.799072E-02 (1,5,2) 0.244146 (1,6,1) -0.121659
(1,5,2): (1,4,2) -7.869933E-02 (1,5,1) -0.244146 (1,5,3) 0.670660 (1,6,2) -0.245966
(1,5,3): (1,4,3) -0.284527 (1,5,2) -0.670660 (1,5,4) 1.52023 (1,6,3) -0.446284
(1,5,4): (1,4,4) -0.974259 (1,5,3) -1.52023 (1,5,5) 2.71379 (1,6,4) -4.416080E-02
(1,5,5): (1,4,5) -2.64605 (1,5,4) -2.71379 (1,5,6) 0.395599 (1,6,5) 5.26063
(1,5,6): (1,4,6) -2.73299 (1,5,5) -0.395599 (1,5,7) -0.389286 (1,6,6) 3.87567
(1,5,7): (1,4,7) -2.64673 (1,5,6) 0.389286 (1,5,8) -2.69911 (1,6,7) 5.25837
(1,5,8): (1,4,8) -0.976227 (1,5,7) 2.69911 (1,5,9) -1.48109 (1,6,8) -5.264185E-02
(1,5,9): (1,4,9) -0.290325 (1,5,8) 1.48109 (1,5,10) -0.570431 (1,6,9) -0.474381
(1,5,10): (1,4,10) -9.772116E-02 (1,5,9) 0.570431 (1,6,10) -0.329217
(1,6,1): (1,5,1) 0.121659 (1,6,2) 0.119841 (1,7,1) -0.279354
(1,6,2): (1,5,2) 0.245966 (1,6,1) -0.119841 (1,6,3) 0.469905 (1,7,2) -0.709657
(1,6,3): (1,5,3) 0.446284 (1,6,2) -0.469905 (1,6,4) 1.92808 (1,7,3) -2.13919
(1,6,4): (1,5,4) 4.416080E-02 (1,6,3) -1.92808 (1,6,5) 8.14510 (1,7,4) -6.52934
(1,6,5): (1,5,5) -5.26063 (1,6,4) -8.14510 (1,6,6) -0.942414 (1,7,5) -20.9505
(1,6,6): (1,5,6) -3.87567 (1,6,5) 0.942414 (1,6,7) 0.946589 (1,7,6) -33.1923
(1,6,7): (1,5,7) -5.25837 (1,6,6) -0.946589 (1,6,8) -8.13652 (1,7,7) -20.9552
(1,6,8): (1,5,8) 5.264185E-02 (1,6,7) 8.13652 (1,6,9) -1.90864 (1,7,8) -6.54640
(1,6,9): (1,5,9) 0.474381 (1,6,8) 1.90864 (1,6,10) -0.425134 (1,7,9) -2.19853
(1,6,10): (1,5,10) 0.329217 (1,6,9) 0.425134 (1,7,10) -0.907335
(1,7,1): (1,6,1) 0.279354 (1,7,2) -0.308894 (1,8,1) -0.168641
(1,7,2): (1,6,2) 0.709657 (1,7,1) 0.308894 (1,7,3) -0.945172 (1,8,2) -0.444977
(1,7,3): (1,6,3) 2.13919 (1,7,2) 0.945172 (1,7,4) -2.32763 (1,8,3) -1.42838
(1,7,4): (1,6,4) 6.52934 (1,7,3) 2.32763 (1,7,5) -5.07810 (1,8,4) -4.69041
(1,7,5): (1,6,5) 20.9505 (1,7,4) 5.07810 (1,7,6) -11.1167 (1,8,5) -15.7218
(1,7,6): (1,6,6) 33.1923 (1,7,5) 11.1167 (1,7,7) 11.1168 (1,8,6) -55.9759
(1,7,7): (1,6,7) 20.9552 (1,7,6) -11.1168 (1,7,8) 5.07390 (1,8,7) -15.7245
(1,7,8): (1,6,8) 6.54640 (1,7,7) -5.07390 (1,7,9) 2.30414 (1,8,8) -4.70043
(1,7,9): (1,6,9) 2.19853 (1,7,8) -2.30414 (1,7,10) 0.850888 (1,8,9) -1.46342
(1,7,10): (1,6,10) 0.907335 (1,7,9) -0.850888 (1,8,10) -0.563847
(1,8,1): (1,7,1) 0.168641 (1,8,2) -0.585621 (1,9,1) 0.145538
(1,8,2): (1,7,2) 0.444977 (1,8,1) 0.585621 (1,8,3) -1.93361 (1,9,2) 0.416114
(1,8,3): (1,7,3) 1.42838 (1,8,2) 1.93361 (1,8,4) -5.62090 (1,9,3) 1.39377
(1,8,4): (1,7,4) 4.69041 (1,8,3) 5.62090 (1,8,5) -16.1595 (1,9,4) 4.65783
(1,8,5): (1,7,5) 15.7218 (1,8,4) 16.1595 (1,8,6) -48.6461 (1,9,5) 15.6936
(1,8,6): (1,7,6) 55.9759 (1,8,5) 48.6461 (1,8,7) 48.6420 (1,9,6) 55.9442
(1,8,7): (1,7,7) 15.7245 (1,8,6) -48.6420 (1,8,8) 16.1461 (1,9,7) 15.6952
(1,8,8): (1,7,8) 4.70043 (1,8,7) -16.1461 (1,8,9) 5.57014 (1,9,8) 4.66491
(1,8,9): (1,7,9) 1.46342 (1,8,8) -5.57014 (1,8,10) 1.75311 (1,9,9) 1.42232
(1,8,10): (1,7,10) 0.563847 (1,8,9) -1.75311 (1,9,10) 0.522865
(1,9,1): (1,8,1) -0.145538 (1,9,2) -0.314583 (1,10,1) 0.264168
(1,9,2): (1,8,2) -0.416114 (1,9,1) 0.314583 (1,9,3) -0.950607 (1,10,2) 0.690054
(1,9,3): (1,8,3) -1.39377 (1,9,2) 0.950607 (1,9,4) -2.32447 (1,10,3) 2.11402
(1,9,4): (1,8,4) -4.65783 (1,9,3) 2.32447 (1,9,5) -5.07046 (1,10,4) 6.49770
(1,9,5): (1,8,5) -15.6936 (1,9,4) 5.07046 (1,9,6) -11.1091 (1,10,5) 20.8341
(1,9,6): (1,8,6) -55.9442 (1,9,5) 11.1091 (1,9,7) 11.1081 (1,10,6) 33.0625
(1,9,7): (1,8,7) -15.6952 (1,9,6) -11.1081 (1,9,8) 5.06433 (1,10,7) 20.8380
(1,9,8): (1,8,8) -4.66491 (1,9,7) -5.06433 (1,9,9) 2.29730 (1,10,8) 6.51280
(1,9,9): (1,8,9) -1.42232 (1,9,8) -2.29730 (1,9,10) 0.850630 (1,10,9) 2.16907
(1,9,10): (1,8,10) -0.522865 (1,9,9) -0.850630 (1,10,10) 0.879580
(1,10,1): (1,9,1) -0.264168 (1,10,2) 0.109836 (1,11,1) 0.117609
(1,10,2): (1,9,2) -0.690054 (1,10,1) -0.109836 (1,10,3) 0.459280 (1,11,2) 0.238772
(1,10,3): (1,9,3) -2.11402 (1,10,2) -0.459280 (1,10,4) 1.92591 (1,11,3) 0.431884
(1,10,4): (1,9,4) -6.49770 (1,10,3) -1.92591 (1,10,5) 8.07847 (1,11,4) 2.236378E-02
(1,10,5): (1,9,5) -20.8341 (1,10,4) -8.07847 (1,10,6) -0.938309 (1,11,5) -5.21988
(1,10,6): (1,9,6) -33.0625 (1,10,5) 0.938309 (1,10,7) 0.940763 (1,11,6) -3.83731
(1,10,7): (1,9,7) -20.8380 (1,10,6) -0.940763 (1,10,8) -8.07304 (1,11,7) -5.21775
(1,10,8): (1,9,8) -6.51280 (1,10,7) 8.07304 (1,10,9) -1.91251 (1,11,8) 3.038675E-02
(1,10,9): (1,9,9) -2.16907 (1,10,8) 1.91251 (1,10,10) -0.424047 (1,11,9) 0.458883
(1,10,10): (1,9,10) -0.879580 (1,10,9) 0.424047 (1,11,10) 0.319468
(1,11,1): (1,10,1) -0.117609 (1,11,2) 0.230989 (1,12,1) -2.202957E-02
(1,11,2): (1,10,2) -0.238772 (1,11,1) -0.230989 (1,11,3) 0.652806 (1,12,2) -7.269844E-02
(1,11,3): (1,10,3) -0.431884 (1,11,2) -0.652806 (1,11,4) 1.51051 (1,12,3) -0.281328
(1,11,4): (1,10,4) -2.236378E-02 (1,11,3) -1.51051 (1,11,5) 2.71208 (1,12,4) -0.979884
(1,11,5): (1,10,5) 5.21988 (1,11,4) -2.71208 (1,11,6) 0.397724 (1,12,5) -2.65993
(1,11,6): (1,10,6) 3.83731 (1,11,5) -0.397724 (1,11,7) -0.393239 (1,12,6) -2.75234
(1,11,7): (1,10,7) 5.21775 (1,11,6) 0.393239 (1,11,8) -2.70077 (1,12,7) -2.66029
(1,11,8): (1,10,8) -3.038675E-02 (1,11,7) 2.70077 (1,11,9) -1.47803 (1,12,8) -0.981035
(1,11,9): (1,10,9) -0.458883 (1,11,8) 1.47803 (1,11,10) -0.563603 (1,12,9) -0.285406
(1,11,10): (1,10,10) -0.319468 (1,11,9) 0.563603 (1,12,10) -8.887800E-02
(1,12,1): (1,11,1) 2.202957E-02 (1,12,2) 0.180241 (1,13,1) -6.776636E-02
(1,12,2): (1,11,2) 7.269844E-02 (1,12,1) -0.180241 (1,12,3) 0.443420 (1,13,2) -0.146355
(1,12,3): (1,11,3) 0.281328 (1,12,2) -0.443420 (1,12,4) 0.808452 (1,13,3) -0.358689
(1,12,4): (1,11,4) 0.979884 (1,12,3) -0.808452 (1,12,5) 1.03125 (1,13,4) -0.796641
(1,12,5): (1,11,5) 2.65993 (1,12,4) -1.03125 (1,12,6) 0.307066 (1,13,5) -1.42781
(1,12,6): (1,11,6) 2.75234 (1,12,5) -0.307066 (1,12,7) -0.302936 (1,13,6) -1.58954
(1,12,7): (1,11,7) 2.66029 (1,12,6) 0.302936 (1,12,8) -1.02090 (1,13,7) -1.42920
(1,12,8): (1,11,8) 0.981035 (1,12,7) 1.02090 (1,12,9) -0.779134 (1,13,8) -0.801583
(1,12,9): (1,11,9) 0.285406 (1,12,8) 0.779134 (1,12,10) -0.366542 (1,13,9) -0.374237
(1,12,10): (1,11,10) 8.887800E-02 (1,12,9) 0.366542 (1,13,10) -0.192032
(1,13,1): (1,12,1) 6.776636E-02 (1,13,2) 0.101626 (1,14,1) -5.506173E-02
(1,13,2): (1,12,2) 0.146355 (1,13,1) -0.101626 (1,13,3) 0.230909 (1,14,2) -0.108340
(1,13,3): (1,12,3) 0.358689 (1,13,2) -0.230909 (1,13,4) 0.370451 (1,14,3) -0.234957
(1,13,4): (1,12,4) 0.796641 (1,13,3) -0.370451 (1,13,5) 0.402435 (1,14,4) -0.450691
(1,13,5): (1,12,5) 1.42781 (1,13,4) -0.402435 (1,13,6) 0.147243 (1,14,5) -0.699128
(1,13,6): (1,12,6) 1.58954 (1,13,5) -0.147243 (1,13,7) -0.144499 (1,14,6) -0.786028
(1,13,7): (1,12,7) 1.42920 (1,13,6) 0.144499 (1,13,8) -0.395690 (1,14,7) -0.700359
(1,13,8): (1,12,8) 0.801583 (1,13,7) 0.395690 (1,13,9) -0.351880 (1,14,8) -0.455009
(1,13,9): (1,12,9) 0.374237 (1,13,8) 0.351880 (1,13,10) -0.184350 (1,14,9) -0.248070
(1,13,10): (1,12,10) 0.192032 (1,13,9) 0.184350 (1,14,10) -0.144512
(1,14,1): (1,13,1) 5.506173E-02 (1,14,2) 4.835180E-02 (1,15,1) -2.699573E-02
(1,14,2): (1,13,2) 0.108340 (1,14,1) -4.835180E-02 (1,14,3) 0.104297 (1,15,2) -5.067991E-02
(1,14,3): (1,13,3) 0.234957 (1,14,2) -0.104297 (1,14,4) 0.154886 (1,15,3) -0.103674
(1,14,4): (1,13,4) 0.450691 (1,14,3) -0.154886 (1,14,5) 0.154711 (1,15,4) -0.186187
(1,14,5): (1,13,5) 0.699128 (1,14,4) -0.154711 (1,14,6) 6.087797E-02 (1,15,5) -0.272174
(1,14,6): (1,13,6) 0.786028 (1,14,5) -6.087797E-02 (1,14,7) -5.935903E-02 (1,15,6) -0.305311
(1,14,7): (1,13,7) 0.700359 (1,14,6) 5.935903E-02 (1,14,8) -0.151064 (1,15,7) -0.272808
(1,14,8): (1,13,8) 0.455009 (1,14,7) 0.151064 (1,14,9) -0.145149 (1,15,8) -0.188390
(1,14,9): (1,13,9) 0.248070 (1,14,8) 0.145149 (1,14,10) -8.085823E-02 (1,15,9) -0.110218
(1,14,10): (1,13,10) 0.144512 (1,14,9) 8.085823E-02 (1,15,10) -6.813097E-02
(1,15,1): (1,14,1) 2.699573E-02 (1,15,2) 2.466816E-02
(1,15,2): (1,14,2) 5.067991E-02 (1,15,1) -2.466816E-02 (1,15,3) 5.130222E-02
(1,15,3): (1,14,3) 0.103674 (1,15,2) -5.130222E-02 (1,15,4) 7.239891E-02
(1,15,4): (1,14,4) 0.186187 (1,15,3) -7.239891E-02 (1,15,5) 6.882424E-02
(1,15,5): (1,14,5) 0.272174 (1,15,4) -6.882424E-02 (1,15,6) 2.782120E-02
(1,15,6): (1,14,6) 0.305311 (1,15,5) -2.782120E-02 (1,15,7) -2.693543E-02
(1,15,7): (1,14,7) 0.272808 (1,15,6) 2.693543E-02 (1,15,8) -6.674733E-02
(1,15,8): (1,14,8) 0.188390 (1,15,7) 6.674733E-02 (1,15,9) -6.701059E-02
(1,15,9): (1,14,9) 0.110218 (1,15,8) 6.701059E-02 (1,15,10) -3.878359E-02
(1,15,10): (1,14,10) 6.813097E-02 (1,15,9) 3.878359E-02

 WEL PACKAGE (WEL-1) FLOW RATES   PERIOD      2   STEP       55
 ----------------------------------------------------------------------------------------
   NUMBER   CELLID                    RATE       NAME                                    
 ----------------------------------------------------------------------------------------
     1      (1,8,6)              -209.35310      WEL                                     
 ----------------------------------------------------------------------------------------




 DRN PACKAGE (DRN-0) FLOW RATES   PERIOD      2   STEP       55
 ----------------------------------------------------------------------------------------
   NUMBER   CELLID                    RATE       NAME                                    
 ----------------------------------------------------------------------------------------
     1      (1,1,1)               0.0000000      SURF                                    
     2      (1,1,2)               0.0000000      SURF                                    
     3      (1,1,3)               0.0000000      SURF                                    
     4      (1,1,4)               0.0000000      SURF                                    
     5      (1,1,5)               0.0000000      SURF                                    
     6      (1,1,6)               0.0000000      SURF                                    
     7      (1,1,7)               0.0000000      SURF                                    
     8      (1,1,8)               0.0000000      SURF                                    
     9      (1,1,9)               0.0000000      SURF                                    
     10     (1,1,10)              0.0000000      SURF                                    
     11     (1,2,1)               0.0000000      SURF                                    
     12     (1,2,2)               0.0000000      SURF                                    
     13     (1,2,3)               0.0000000      SURF                                    
     14     (1,2,4)               0.0000000      SURF                                    
     15     (1,2,5)               0.0000000      SURF                                    
     16     (1,2,6)               0.0000000      SURF                                    
     17     (1,2,7)               0.0000000      SURF                                    
     18     (1,2,8)               0.0000000      SURF                                    
     19     (1,2,9)               0.0000000      SURF                                    
     20     (1,2,10)              0.0000000      SURF                                    
     21     (1,3,1)               0.0000000      SURF                                    
     22     (1,3,2)               0.0000000      SURF                                    
     23     (1,3,3)               0.0000000      SURF                                    
     24     (1,3,4)               0.0000000      SURF                                    
     25     (1,3,5)               0.0000000      SURF                                    
     26     (1,3,6)               0.0000000      SURF                                    
     27     (1,3,7)               0.0000000      SURF                                    
     28     (1,3,8)               0.0000000      SURF                                    
     29     (1,3,9)               0.0000000      SURF                                    
     30     (1,3,10)              0.0000000      SURF                                    
     31     (1,4,1)               0.0000000      SURF                                    
     32     (1,4,2)               0.0000000      SURF                                    
     33     (1,4,3)               0.0000000      SURF                                    
     34     (1,4,4)               0.0000000      SURF                                    
     35     (1,4,5)               0.0000000      SURF                                    
     36     (1,4,6)               0.0000000      SURF                                    
     37     (1,4,7)               0.0000000      SURF                                    
     38     (1,4,8)               0.0000000      SURF                                    
     39     (1,4,9)               0.0000000      SURF                                    
     40     (1,4,10)              0.0000000      SURF                                    
     41     (1,5,1)               0.0000000      SURF                                    
     42     (1,5,2)               0.0000000      SURF                                    
     43     (1,5,3)               0.0000000      SURF                                    
     44     (1,5,4)               0.0000000      SURF                                    
     45     (1,5,5)               0.0000000      SURF                                    
     46     (1,5,6)               0.0000000      SURF                                    
     47     (1,5,7)               0.0000000      SURF                                    
     48     (1,5,8)               0.0000000      SURF                                    
     49     (1,5,9)               0.0000000      SURF                                    
     50     (1,5,10)              0.0000000      SURF                                    
     51     (1,6,1)               0.0000000      SURF                                    
     52     (1,6,2)               0.0000000      SURF                                    
     53     (1,6,3)               0.0000000      SURF                                    
     54     (1,6,4)               0.0000000      SURF                                    
     55     (1,6,5)               0.0000000      SURF                                    
     56     (1,6,6)               0.0000000      SURF                                    
     57     (1,6,7)              -3.42013664E-07 SURF                                    
     58     (1,6,8)               0.0000000      SURF                                    
     59     (1,6,9)               0.0000000      SURF                                    
     60     (1,6,10)              0.0000000      SURF                                    
     61     (1,7,1)               0.0000000      SURF                                    
     62     (1,7,2)               0.0000000      SURF                                    
     63     (1,7,3)               0.0000000      SURF                                    
     64     (1,7,4)               0.0000000      SURF                                    
     65     (1,7,5)               0.0000000      SURF                                    
     66     (1,7,6)               0.0000000      SURF                                    
     67     (1,7,7)               0.0000000      SURF                                    
     68     (1,7,8)               0.0000000      SURF                                    
     69     (1,7,9)               0.0000000      SURF                                    
     70     (1,7,10)              0.0000000      SURF                                    
     71     (1,8,1)               0.0000000      SURF                                    
     72     (1,8,2)               0.0000000      SURF                                    
     73     (1,8,3)               0.0000000      SURF                                    
     74     (1,8,4)               0.0000000      SURF                                    
     75     (1,8,5)               0.0000000      SURF                                    
     76     (1,8,6)               0.0000000      SURF                                    
     77     (1,8,7)               0.0000000      SURF                                    
     78     (1,8,8)               0.0000000      SURF                                    
     79     (1,8,9)               0.0000000      SURF                                    
     80     (1,8,10)              0.0000000      SURF                                    
     81     (1,9,1)               0.0000000      SURF                                    
     82     (1,9,2)               0.0000000      SURF                                    
     83     (1,9,3)               0.0000000      SURF                                    
     84     (1,9,4)               0.0000000      SURF                                    
     85     (1,9,5)               0.0000000      SURF                                    
     86     (1,9,6)               0.0000000      SURF                                    
     87     (1,9,7)               0.0000000      SURF                                    
     88     (1,9,8)               0.0000000      SURF                                    
     89     (1,9,9)               0.0000000      SURF                                    
     90     (1,9,10)              0.0000000      SURF                                    
     91     (1,10,1)              0.0000000      SURF                                    
     92     (1,10,2)              0.0000000      SURF                                    
     93     (1,10,3)              0.0000000      SURF                                    
     94     (1,10,4)              0.0000000      SURF                                    
     95     (1,10,5)              0.0000000      SURF                                    
     96     (1,10,6)              0.0000000      SURF                                    
     97     (1,10,7)              0.0000000      SURF                                    
     98     (1,10,8)              0.0000000      SURF                                    
     99     (1,10,9)              0.0000000      SURF                                    
    100     (1,10,10)             0.0000000      SURF                                    
    101     (1,11,1)              0.0000000      SURF                                    
    102     (1,11,2)              0.0000000      SURF                                    
    103     (1,11,3)              0.0000000      SURF                                    
    104     (1,11,4)              0.0000000      SURF                                    
    105     (1,11,5)              0.0000000      SURF                                    
    106     (1,11,6)              0.0000000      SURF                                    
    107     (1,11,7)              0.0000000      SURF                                    
    108     (1,11,8)              0.0000000      SURF                                    
    109     (1,11,9)              0.0000000      SURF                                    
    110     (1,11,10)             0.0000000      SURF                                    
    111     (1,12,1)              0.0000000      SURF                                    
    112     (1,12,2)              0.0000000      SURF                                    
    113     (1,12,3)              0.0000000      SURF                                    
    114     (1,12,4)              0.0000000      SURF                                    
    115     (1,12,5)              0.0000000      SURF                                    
    116     (1,12,6)              0.0000000      SURF                                    
    117     (1,12,7)              0.0000000      SURF                                    
    118     (1,12,8)              0.0000000      SURF                                    
    119     (1,12,9)              0.0000000      SURF                                    
    120     (1,12,10)             0.0000000      SURF                                    
    121     (1,13,1)              0.0000000      SURF                                    
    122     (1,13,2)              0.0000000      SURF                                    
    123     (1,13,3)              0.0000000      SURF                                    
    124     (1,13,4)              0.0000000      SURF                                    
    125     (1,13,5)              0.0000000      SURF                                    
    126     (1,13,6)              0.0000000      SURF                                    
    127     (1,13,7)              0.0000000      SURF                                    
    128     (1,13,8)              0.0000000      SURF                                    
    129     (1,13,9)              0.0000000      SURF                                    
    130     (1,13,10)             0.0000000      SURF                                    
    131     (1,14,1)              0.0000000      SURF                                    
    132     (1,14,2)              0.0000000      SURF                                    
    133     (1,14,3)              0.0000000      SURF                                    
    134     (1,14,4)              0.0000000      SURF                                    
    135     (1,14,5)              0.0000000      SURF                                    
    136     (1,14,6)              0.0000000      SURF                                    
    137     (1,14,7)              0.0000000      SURF                                    
    138     (1,14,8)              0.0000000      SURF                                    
    139     (1,14,9)              0.0000000      SURF                                    
    140     (1,14,10)             0.0000000      SURF                                    
    141     (1,15,1)              0.0000000      SURF                                    
    142     (1,15,2)              0.0000000      SURF                                    
    143     (1,15,3)              0.0000000      SURF                                    
    144     (1,15,4)              0.0000000      SURF                                    
    145     (1,15,5)              0.0000000      SURF                                    
    146     (1,15,6)              0.0000000      SURF                                    
    147     (1,15,7)              0.0000000      SURF                                    
    148     (1,15,8)              0.0000000      SURF                                    
    149     (1,15,9)              0.0000000      SURF                                    
    150     (1,15,10)             0.0000000      SURF                                    
 ----------------------------------------------------------------------------------------




 API PACKAGE (MAR) FLOW RATES   PERIOD      2   STEP       55
 -----------------------------------------------
   NUMBER   CELLID                    RATE      
 -----------------------------------------------
     1      (1,6,5)               35.296713     
     2      (1,6,6)               35.296713     
     3      (1,6,7)               35.296713     
     4      (1,10,5)              34.487654     
     5      (1,10,6)              34.487654     
     6      (1,10,7)              34.487654     
 -----------------------------------------------



1
  HEAD IN LAYER   1 AT END OF TIME STEP  55 IN STRESS PERIOD    2
  ---------------------------------------------------------------------------

            1           2           3           4           5           6           7           8           9          10
 ........................................................................................................................
   1   4.3850E-03  7.3112E-03  1.3267E-02  2.1472E-02  2.9136E-02  3.2228E-02  2.9264E-02  2.1885E-02  1.4380E-02  9.9771E-03
   2   7.6237E-03  1.3128E-02  2.4723E-02  4.1506E-02  5.7952E-02  6.4420E-02  5.8165E-02  4.2199E-02  2.6634E-02  1.7832E-02
   3   1.4095E-02  2.5253E-02  4.9957E-02  8.8503E-02  0.1295      0.1445      0.1299      8.9734E-02  5.3431E-02  3.4081E-02
   4   2.1927E-02  4.1184E-02  8.7188E-02  0.1685      0.2699      0.3000      0.2704      0.1703      9.2481E-02  5.5096E-02
   5   2.4720E-02  4.9015E-02  0.1153      0.2634      0.5214      0.5588      0.5220      0.2654      0.1212      6.4805E-02
   6   1.2584E-02  2.4538E-02  7.1197E-02  0.2591      0.9996      0.9139       1.000      0.2603      7.4295E-02  3.2096E-02
   7  -1.5317E-02 -4.6253E-02 -0.1412     -0.3773     -0.9050      -2.127     -0.9050     -0.3777     -0.1439     -5.8348E-02
   8  -3.2207E-02 -9.0958E-02 -0.2861     -0.8647      -2.634      -9.237      -2.634     -0.8662     -0.2924     -0.1151    
   9  -1.7627E-02 -4.9141E-02 -0.1447     -0.3805     -0.9076      -2.129     -0.9077     -0.3812     -0.1480     -6.2448E-02
  10   8.7665E-03  1.9728E-02  6.5358E-02  0.2532      0.9884      0.9030      0.9886      0.2539      6.7409E-02  2.5288E-02
  11   2.0503E-02  4.3502E-02  0.1081      0.2554      0.5133      0.5510      0.5138      0.2569      0.1128      5.7053E-02
  12   1.8305E-02  3.6264E-02  8.0253E-02  0.1598      0.2603      0.2902      0.2607      0.1612      8.4563E-02  4.8216E-02
  13   1.1541E-02  2.1681E-02  4.4669E-02  8.1415E-02  0.1212      0.1357      0.1214      8.2354E-02  4.7453E-02  2.9105E-02
  14   6.0408E-03  1.0871E-02  2.1278E-02  3.6710E-02  5.2101E-02  5.8154E-02  5.2252E-02  3.7224E-02  2.2763E-02  1.4696E-02
  15   3.3429E-03  5.8083E-03  1.0933E-02  1.8160E-02  2.5025E-02  2.7799E-02  2.5113E-02  1.8455E-02  1.1766E-02  7.8927E-03

 HEAD WILL BE SAVED ON UNIT 1100 AT END OF TIME STEP   55, STRESS PERIOD    2


  VOLUME BUDGET FOR ENTIRE MODEL AT END OF TIME STEP   55, STRESS PERIOD   2
  ---------------------------------------------------------------------------------------------------

     CUMULATIVE VOLUME      L**3       RATES FOR THIS TIME STEP      L**3/T          PACKAGE NAME    
     ------------------                 ------------------------                     ----------------

           IN:                                      IN:
           ---                                      ---
              STO-SS =          22.2566                STO-SS =       1.1960E-02     STORAGE                          
              STO-SY =       55847.2964                STO-SY =          25.4417     STORAGE                          
                 WEL =           0.0000                   WEL =           0.0000     WEL-1                            
                 DRN =           0.0000                   DRN =           0.0000     DRN-0                            
                 API =      111847.5940                   API =         209.3531     MAR                              
                 CHD =       2.0279E-08                   CHD =           0.0000     CHD_0                            

            TOTAL IN =      167717.1470              TOTAL IN =         234.8068

          OUT:                                     OUT:
          ----                                     ----
              STO-SS =          18.6045                STO-SS =       1.2891E-02     STORAGE                          
              STO-SY =       36282.1421                STO-SY =          25.4408     STORAGE                          
                 WEL =      131416.4003                   WEL =         209.3531     WEL-1                            
                 DRN =       1.8506E-04                   DRN =       3.4201E-07     DRN-0                            
                 API =           0.0000                   API =           0.0000     MAR                              
                 CHD =       2.0705E-08                   CHD =           0.0000     CHD_0                            

           TOTAL OUT =      167717.1470             TOTAL OUT =         234.8068

            IN - OUT =      -1.2229E-06              IN - OUT =       9.0904E-10

 PERCENT DISCREPANCY =          -0.00     PERCENT DISCREPANCY =           0.00




         TIME SUMMARY AT END OF TIME STEP   55 IN STRESS PERIOD    2
                    SECONDS     MINUTES      HOURS       DAYS        YEARS
                    -----------------------------------------------------------
   TIME STEP LENGTH 8.64000E+05  14400.      240.00      10.000     2.73785E-02
 STRESS PERIOD TIME 4.75200E+07 7.92000E+05  13200.      550.00      1.5058    
         TOTAL TIME 4.76064E+07 7.93440E+05  13224.      551.00      1.5086    


end timestep


start timestep kper="2" kstp="56" mode="normal"

 UBDSV1 SAVING           STO-SS ON UNIT   1099 AT TIME STEP     56, STRESS PERIOD      2
 UBDSV1 SAVING           STO-SY ON UNIT   1099 AT TIME STEP     56, STRESS PERIOD      2
 UBDSV1 SAVING     FLOW-JA-FACE ON UNIT   1099 AT TIME STEP     56, STRESS PERIOD      2
 UBDSV06 SAVING       DATA-SPDIS IN MODEL GWF              PACKAGE NPF             CONNECTED TO MODEL GWF              PACKAGE NPF              ON UNIT   1099 AT TIME STEP     56, STRESS PERIOD      2
 UBDSV06 SAVING              WEL IN MODEL GWF              PACKAGE GWF             CONNECTED TO MODEL GWF              PACKAGE WEL-1            ON UNIT   1099 AT TIME STEP     56, STRESS PERIOD      2
 UBDSV06 SAVING              DRN IN MODEL GWF              PACKAGE GWF             CONNECTED TO MODEL GWF              PACKAGE DRN-0            ON UNIT   1099 AT TIME STEP     56, STRESS PERIOD      2
 UBDSV06 SAVING              API IN MODEL GWF              PACKAGE GWF             CONNECTED TO MODEL GWF              PACKAGE MAR              ON UNIT   1099 AT TIME STEP     56, STRESS PERIOD      2
 UBDSV06 SAVING              CHD IN MODEL GWF              PACKAGE GWF             CONNECTED TO MODEL GWF              PACKAGE CHD_0            ON UNIT   1099 AT TIME STEP     56, STRESS PERIOD      2

    CALCULATED INTERCELL FLOW FOR PERIOD 2 STEP 56
(1,1,1): (1,1,2) 3.064106E-02 (1,2,1) 3.369301E-02
(1,1,2): (1,1,1) -3.064106E-02 (1,1,3) 6.209403E-02 (1,2,2) 6.000298E-02
(1,1,3): (1,1,2) -6.209403E-02 (1,1,4) 8.516454E-02 (1,2,3) 0.117463
(1,1,4): (1,1,3) -8.516454E-02 (1,1,5) 7.927611E-02 (1,2,4) 0.204771
(1,1,5): (1,1,4) -7.927611E-02 (1,1,6) 3.199154E-02 (1,2,5) 0.294274
(1,1,6): (1,1,5) -3.199154E-02 (1,1,7) -3.057441E-02 (1,2,6) 0.328759
(1,1,7): (1,1,6) 3.057441E-02 (1,1,8) -7.618397E-02 (1,2,7) 0.295183
(1,1,8): (1,1,7) 7.618397E-02 (1,1,9) -7.765191E-02 (1,2,8) 0.207761
(1,1,9): (1,1,8) 7.765191E-02 (1,1,10) -4.564751E-02 (1,2,9) 0.125838
(1,1,10): (1,1,9) 4.564751E-02 (1,2,10) 8.113856E-02
(1,2,1): (1,1,1) -3.369301E-02 (1,2,2) 5.695023E-02 (1,3,1) 6.666069E-02
(1,2,2): (1,1,2) -6.000298E-02 (1,2,1) -5.695023E-02 (1,2,3) 0.119556 (1,3,2) 0.123989
(1,2,3): (1,1,3) -0.117463 (1,2,2) -0.119556 (1,2,4) 0.172445 (1,3,3) 0.257033
(1,2,4): (1,1,4) -0.204771 (1,2,3) -0.172445 (1,2,5) 0.168668 (1,3,4) 0.478794
(1,2,5): (1,1,5) -0.294274 (1,2,4) -0.168668 (1,2,6) 6.638755E-02 (1,3,5) 0.730833
(1,2,6): (1,1,6) -0.328759 (1,2,5) -6.638755E-02 (1,2,7) -6.406356E-02 (1,3,6) 0.819019
(1,2,7): (1,1,7) -0.295183 (1,2,6) 6.406356E-02 (1,2,8) -0.163493 (1,3,7) 0.732560
(1,2,8): (1,1,8) -0.207761 (1,2,7) 0.163493 (1,2,9) -0.159536 (1,3,8) 0.484515
(1,2,9): (1,1,9) -0.125838 (1,2,8) 0.159536 (1,2,10) -9.033082E-02 (1,3,9) 0.273348
(1,2,10): (1,1,10) -8.113856E-02 (1,2,9) 9.033082E-02 (1,3,10) 0.166440
(1,3,1): (1,2,1) -6.666069E-02 (1,3,2) 0.114273 (1,4,1) 7.924463E-02
(1,3,2): (1,2,2) -0.123989 (1,3,1) -0.114273 (1,3,3) 0.252594 (1,4,2) 0.160542
(1,3,3): (1,2,3) -0.257033 (1,3,2) -0.252594 (1,3,4) 0.394022 (1,4,3) 0.375846
(1,3,4): (1,2,4) -0.478794 (1,3,3) -0.394022 (1,3,5) 0.419950 (1,4,4) 0.813891
(1,3,5): (1,2,5) -0.730833 (1,3,4) -0.419950 (1,3,6) 0.154011 (1,4,5) 1.44246
(1,3,6): (1,2,6) -0.819019 (1,3,5) -0.154011 (1,3,7) -0.149967 (1,4,6) 1.60288
(1,3,7): (1,2,7) -0.732560 (1,3,6) 0.149967 (1,3,8) -0.410767 (1,4,7) 1.44440
(1,3,8): (1,2,8) -0.484515 (1,3,7) 0.410767 (1,3,9) -0.370467 (1,4,8) 0.820315
(1,3,9): (1,2,9) -0.273348 (1,3,8) 0.370467 (1,3,10) -0.197159 (1,4,9) 0.394630
(1,3,10): (1,2,10) -0.166440 (1,3,9) 0.197159 (1,4,10) 0.212145
(1,4,1): (1,3,1) -7.924463E-02 (1,4,2) 0.195598 (1,5,1) 2.543011E-02
(1,4,2): (1,3,2) -0.160542 (1,4,1) -0.195598 (1,4,3) 0.468093 (1,5,2) 7.418281E-02
(1,4,3): (1,3,3) -0.375846 (1,4,2) -0.468093 (1,4,4) 0.832143 (1,5,3) 0.276770
(1,4,4): (1,3,4) -0.813891 (1,4,3) -0.832143 (1,4,5) 1.04619 (1,5,4) 0.964209
(1,4,5): (1,3,5) -1.44246 (1,4,4) -1.04619 (1,4,6) 0.312529 (1,5,5) 2.63721
(1,4,6): (1,3,6) -1.60288 (1,4,5) -0.312529 (1,4,7) -0.306557 (1,5,6) 2.72519
(1,4,7): (1,3,7) -1.44440 (1,4,6) 0.306557 (1,4,8) -1.03245 (1,5,7) 2.63784
(1,4,8): (1,3,8) -0.820315 (1,4,7) 1.03245 (1,4,9) -0.796053 (1,5,8) 0.965981
(1,4,9): (1,3,9) -0.394630 (1,4,8) 0.796053 (1,4,10) -0.379617 (1,5,9) 0.281929
(1,4,10): (1,3,10) -0.212145 (1,4,9) 0.379617 (1,5,10) 9.149353E-02
(1,5,1): (1,4,1) -2.543011E-02 (1,5,2) 0.244433 (1,6,1) -0.128354
(1,5,2): (1,4,2) -7.418281E-02 (1,5,1) -0.244433 (1,5,3) 0.671460 (1,6,2) -0.256714
(1,5,3): (1,4,3) -0.276770 (1,5,2) -0.671460 (1,5,4) 1.52321 (1,6,3) -0.463758
(1,5,4): (1,4,4) -0.964209 (1,5,3) -1.52321 (1,5,5) 2.72042 (1,6,4) -6.611030E-02
(1,5,5): (1,4,5) -2.63721 (1,5,4) -2.72042 (1,5,6) 0.398876 (1,6,5) 5.24480
(1,5,6): (1,4,6) -2.72519 (1,5,5) -0.398876 (1,5,7) -0.392275 (1,6,6) 3.86325
(1,5,7): (1,4,7) -2.63784 (1,5,6) 0.392275 (1,5,8) -2.70531 (1,6,7) 5.24235
(1,5,8): (1,4,8) -0.965981 (1,5,7) 2.70531 (1,5,9) -1.48344 (1,6,8) -7.521750E-02
(1,5,9): (1,4,9) -0.281929 (1,5,8) 1.48344 (1,5,10) -0.570587 (1,6,9) -0.493573
(1,5,10): (1,4,10) -9.149353E-02 (1,5,9) 0.570587 (1,6,10) -0.344063
(1,6,1): (1,5,1) 0.128354 (1,6,2) 0.116089 (1,7,1) -0.287318
(1,6,2): (1,5,2) 0.256714 (1,6,1) -0.116089 (1,6,3) 0.463998 (1,7,2) -0.722264
(1,6,3): (1,5,3) 0.463758 (1,6,2) -0.463998 (1,6,4) 1.92645 (1,7,3) -2.16015
(1,6,4): (1,5,4) 6.611030E-02 (1,6,3) -1.92645 (1,6,5) 8.15934 (1,7,4) -6.55995
(1,6,5): (1,5,5) -5.24480 (1,6,4) -8.15934 (1,6,6) -0.935974 (1,7,5) -20.9924
(1,6,6): (1,5,6) -3.86325 (1,6,5) 0.935974 (1,6,7) 0.940246 (1,7,6) -33.2283
(1,6,7): (1,5,7) -5.24235 (1,6,6) -0.940246 (1,6,8) -8.15077 (1,7,7) -20.9974
(1,6,8): (1,5,8) 7.521750E-02 (1,6,7) 8.15077 (1,6,9) -1.90748 (1,7,8) -6.57777
(1,6,9): (1,5,9) 0.493573 (1,6,8) 1.90748 (1,6,10) -0.420966 (1,7,9) -2.22152
(1,6,10): (1,5,10) 0.344063 (1,6,9) 0.420966 (1,7,10) -0.924684
(1,7,1): (1,6,1) 0.287318 (1,7,2) -0.317245 (1,8,1) -0.172230
(1,7,2): (1,6,2) 0.722264 (1,7,1) 0.317245 (1,7,3) -0.959183 (1,8,2) -0.450480
(1,7,3): (1,6,3) 2.16015 (1,7,2) 0.959183 (1,7,4) -2.33763 (1,8,3) -1.43709
(1,7,4): (1,6,4) 6.55995 (1,7,3) 2.33763 (1,7,5) -5.07053 (1,8,4) -4.70112
(1,7,5): (1,6,5) 20.9924 (1,7,4) 5.07053 (1,7,6) -11.1007 (1,8,5) -15.7267
(1,7,6): (1,6,6) 33.2283 (1,7,5) 11.1007 (1,7,7) 11.1006 (1,8,6) -55.9429
(1,7,7): (1,6,7) 20.9974 (1,7,6) -11.1006 (1,7,8) 5.06579 (1,8,7) -15.7295
(1,7,8): (1,6,8) 6.57777 (1,7,7) -5.06579 (1,7,9) 2.31236 (1,8,8) -4.71149
(1,7,9): (1,6,9) 2.22152 (1,7,8) -2.31236 (1,7,10) 0.860422 (1,8,9) -1.47304
(1,7,10): (1,6,10) 0.924684 (1,7,9) -0.860422 (1,8,10) -0.571406
(1,8,1): (1,7,1) 0.172230 (1,8,2) -0.595903 (1,9,1) 0.149247
(1,8,2): (1,7,2) 0.450480 (1,8,1) 0.595903 (1,8,3) -1.95093 (1,9,2) 0.422078
(1,8,3): (1,7,3) 1.43709 (1,8,2) 1.95093 (1,8,4) -5.63300 (1,9,3) 1.40328
(1,8,4): (1,7,4) 4.70112 (1,8,3) 5.63300 (1,8,5) -16.1438 (1,9,4) 4.66842
(1,8,5): (1,7,5) 15.7267 (1,8,4) 16.1438 (1,8,6) -48.5801 (1,9,5) 15.6924
(1,8,6): (1,7,6) 55.9429 (1,8,5) 48.5801 (1,8,7) 48.5757 (1,9,6) 55.9005
(1,8,7): (1,7,7) 15.7295 (1,8,6) -48.5757 (1,8,8) 16.1295 (1,9,7) 15.6941
(1,8,8): (1,7,8) 4.71149 (1,8,7) -16.1295 (1,8,9) 5.57981 (1,9,8) 4.67581
(1,8,9): (1,7,9) 1.47304 (1,8,8) -5.57981 (1,8,10) 1.76473 (1,9,9) 1.43275
(1,8,10): (1,7,10) 0.571406 (1,8,9) -1.76473 (1,9,10) 0.531088
(1,9,1): (1,8,1) -0.149247 (1,9,2) -0.322595 (1,10,1) 0.272083
(1,9,2): (1,8,2) -0.422078 (1,9,1) 0.322595 (1,9,3) -0.964280 (1,10,2) 0.702765
(1,9,3): (1,8,3) -1.40328 (1,9,2) 0.964280 (1,9,4) -2.33540 (1,10,3) 2.13494
(1,9,4): (1,8,4) -4.66842 (1,9,3) 2.33540 (1,9,5) -5.06813 (1,10,4) 6.52439
(1,9,5): (1,8,5) -15.6924 (1,9,4) 5.06813 (1,9,6) -11.0938 (1,10,5) 20.8417
(1,9,6): (1,8,6) -55.9005 (1,9,5) 11.0938 (1,9,7) 11.0926 (1,10,6) 33.0571
(1,9,7): (1,8,7) -15.6941 (1,9,6) -11.0926 (1,9,8) 5.06145 (1,10,7) 20.8459
(1,9,8): (1,8,8) -4.67581 (1,9,7) -5.06145 (1,9,9) 2.30651 (1,10,8) 6.54022
(1,9,9): (1,8,9) -1.43275 (1,9,8) -2.30651 (1,9,10) 0.860014 (1,10,9) 2.19199
(1,9,10): (1,8,10) -0.531088 (1,9,9) -0.860014 (1,10,10) 0.897091
(1,10,1): (1,9,1) -0.272083 (1,10,2) 0.106576 (1,11,1) 0.124096
(1,10,2): (1,9,2) -0.702765 (1,10,1) -0.106576 (1,10,3) 0.453564 (1,11,2) 0.249375
(1,10,3): (1,9,3) -2.13494 (1,10,2) -0.453564 (1,10,4) 1.91966 (1,11,3) 0.449795
(1,10,4): (1,9,4) -6.52439 (1,10,3) -1.91966 (1,10,5) 8.06006 (1,11,4) 4.890748E-02
(1,10,5): (1,9,5) -20.8417 (1,10,4) -8.06006 (1,10,6) -0.935995 (1,11,5) -5.17221
(1,10,6): (1,9,6) -33.0571 (1,10,5) 0.935995 (1,10,7) 0.938505 (1,11,6) -3.79009
(1,10,7): (1,9,7) -20.8459 (1,10,6) -0.938505 (1,10,8) -8.05467 (1,11,7) -5.16990
(1,10,8): (1,9,8) -6.54022 (1,10,7) 8.05467 (1,10,9) -1.90667 (1,11,8) 5.752244E-02
(1,10,9): (1,9,9) -2.19199 (1,10,8) 1.90667 (1,10,10) -0.419800 (1,11,9) 0.478448
(1,10,10): (1,9,10) -0.897091 (1,10,9) 0.419800 (1,11,10) 0.334077
(1,11,1): (1,10,1) -0.124096 (1,11,2) 0.231834 (1,12,1) -1.972948E-02
(1,11,2): (1,10,2) -0.249375 (1,11,1) -0.231834 (1,11,3) 0.654382 (1,12,2) -6.858630E-02
(1,11,3): (1,10,3) -0.449795 (1,11,2) -0.654382 (1,11,4) 1.51310 (1,12,3) -0.273996
(1,11,4): (1,10,4) -4.890748E-02 (1,11,3) -1.51310 (1,11,5) 2.71393 (1,12,4) -0.969174
(1,11,5): (1,10,5) 5.17221 (1,11,4) -2.71393 (1,11,6) 0.400083 (1,12,5) -2.64567
(1,11,6): (1,10,6) 3.79009 (1,11,5) -0.400083 (1,11,7) -0.395368 (1,12,6) -2.73813
(1,11,7): (1,10,7) 5.16990 (1,11,6) 0.395368 (1,11,8) -2.70223 (1,12,7) -2.64598
(1,11,8): (1,10,8) -5.752244E-02 (1,11,7) 2.70223 (1,11,9) -1.47996 (1,12,8) -0.970147
(1,11,9): (1,10,9) -0.478448 (1,11,8) 1.47996 (1,11,10) -0.564291 (1,12,9) -0.277505
(1,11,10): (1,10,10) -0.334077 (1,11,9) 0.564291 (1,12,10) -8.323764E-02
(1,12,1): (1,11,1) 1.972948E-02 (1,12,2) 0.182898 (1,13,1) -6.867097E-02
(1,12,2): (1,11,2) 6.858630E-02 (1,12,1) -0.182898 (1,12,3) 0.448210 (1,13,2) -0.147312
(1,12,3): (1,11,3) 0.273996 (1,12,2) -0.448210 (1,12,4) 0.814345 (1,13,3) -0.359702
(1,12,4): (1,11,4) 0.969174 (1,12,3) -0.814345 (1,12,5) 1.03641 (1,13,4) -0.797845
(1,12,5): (1,11,5) 2.64567 (1,12,4) -1.03641 (1,12,6) 0.309362 (1,13,5) -1.42937
(1,12,6): (1,11,6) 2.73813 (1,12,5) -0.309362 (1,12,7) -0.304957 (1,13,6) -1.59147
(1,12,7): (1,11,7) 2.64598 (1,12,6) 0.304957 (1,12,8) -1.02555 (1,13,7) -1.43082
(1,12,8): (1,11,8) 0.970147 (1,12,7) 1.02555 (1,12,9) -0.783978 (1,13,8) -0.802923
(1,12,9): (1,11,9) 0.277505 (1,12,8) 0.783978 (1,12,10) -0.369481 (1,13,9) -0.375515
(1,12,10): (1,11,10) 8.323764E-02 (1,12,9) 0.369481 (1,13,10) -0.193397
(1,13,1): (1,12,1) 6.867097E-02 (1,13,2) 0.104229 (1,14,1) -5.692035E-02
(1,13,2): (1,12,2) 0.147312 (1,13,1) -0.104229 (1,13,3) 0.235635 (1,14,2) -0.110944
(1,13,3): (1,12,3) 0.359702 (1,13,2) -0.235635 (1,13,4) 0.376133 (1,14,3) -0.238884
(1,13,4): (1,12,4) 0.797845 (1,13,3) -0.376133 (1,13,5) 0.407213 (1,14,4) -0.456194
(1,13,5): (1,12,5) 1.42937 (1,13,4) -0.407213 (1,13,6) 0.149170 (1,14,5) -0.705988
(1,13,6): (1,12,6) 1.59147 (1,13,5) -0.149170 (1,13,7) -0.146205 (1,14,6) -0.793453
(1,13,7): (1,12,7) 1.43082 (1,13,6) 0.146205 (1,13,8) -0.400037 (1,14,7) -0.707294
(1,13,8): (1,12,8) 0.802923 (1,13,7) 0.400037 (1,13,9) -0.356649 (1,14,8) -0.460730
(1,13,9): (1,12,9) 0.375515 (1,13,8) 0.356649 (1,13,10) -0.187373 (1,14,9) -0.252503
(1,13,10): (1,12,10) 0.193397 (1,13,9) 0.187373 (1,14,10) -0.148140
(1,14,1): (1,13,1) 5.692035E-02 (1,14,2) 5.020904E-02 (1,15,1) -2.823179E-02
(1,14,2): (1,13,2) 0.110944 (1,14,1) -5.020904E-02 (1,14,3) 0.107700 (1,15,2) -5.247195E-02
(1,14,3): (1,13,3) 0.238884 (1,14,2) -0.107700 (1,14,4) 0.158993 (1,15,3) -0.106470
(1,14,4): (1,13,4) 0.456194 (1,14,3) -0.158993 (1,14,5) 0.158142 (1,15,4) -0.190177
(1,14,5): (1,13,5) 0.705988 (1,14,4) -0.158142 (1,14,6) 6.224635E-02 (1,15,5) -0.277156
(1,14,6): (1,13,6) 0.793453 (1,14,5) -6.224635E-02 (1,14,7) -6.058158E-02 (1,15,6) -0.310687
(1,14,7): (1,13,7) 0.707294 (1,14,6) 6.058158E-02 (1,14,8) -0.154207 (1,15,7) -0.277837
(1,14,8): (1,13,8) 0.460730 (1,14,7) 0.154207 (1,14,9) -0.148634 (1,15,8) -0.192518
(1,14,9): (1,13,9) 0.252503 (1,14,8) 0.148634 (1,14,10) -8.307650E-02 (1,15,9) -0.113347
(1,14,10): (1,13,10) 0.148140 (1,14,9) 8.307650E-02 (1,15,10) -7.061975E-02
(1,15,1): (1,14,1) 2.823179E-02 (1,15,2) 2.596942E-02
(1,15,2): (1,14,2) 5.247195E-02 (1,15,1) -2.596942E-02 (1,15,3) 5.370095E-02
(1,15,3): (1,14,3) 0.106470 (1,15,2) -5.370095E-02 (1,15,4) 7.531215E-02
(1,15,4): (1,14,4) 0.190177 (1,15,3) -7.531215E-02 (1,15,5) 7.126528E-02
(1,15,5): (1,14,5) 0.277156 (1,15,4) -7.126528E-02 (1,15,6) 2.879663E-02
(1,15,6): (1,14,6) 0.310687 (1,15,5) -2.879663E-02 (1,15,7) -2.781202E-02
(1,15,7): (1,14,7) 0.277837 (1,15,6) 2.781202E-02 (1,15,8) -6.899214E-02
(1,15,8): (1,14,8) 0.192518 (1,15,7) 6.899214E-02 (1,15,9) -6.949714E-02
(1,15,9): (1,14,9) 0.113347 (1,15,8) 6.949714E-02 (1,15,10) -4.036247E-02
(1,15,10): (1,14,10) 7.061975E-02 (1,15,9) 4.036247E-02

 WEL PACKAGE (WEL-1) FLOW RATES   PERIOD      2   STEP       56
 ----------------------------------------------------------------------------------------
   NUMBER   CELLID                    RATE       NAME                                    
 ----------------------------------------------------------------------------------------
     1      (1,8,6)              -209.13713      WEL                                     
 ----------------------------------------------------------------------------------------




 DRN PACKAGE (DRN-0) FLOW RATES   PERIOD      2   STEP       56
 ----------------------------------------------------------------------------------------
   NUMBER   CELLID                    RATE       NAME                                    
 ----------------------------------------------------------------------------------------
     1      (1,1,1)               0.0000000      SURF                                    
     2      (1,1,2)               0.0000000      SURF                                    
     3      (1,1,3)               0.0000000      SURF                                    
     4      (1,1,4)               0.0000000      SURF                                    
     5      (1,1,5)               0.0000000      SURF                                    
     6      (1,1,6)               0.0000000      SURF                                    
     7      (1,1,7)               0.0000000      SURF                                    
     8      (1,1,8)               0.0000000      SURF                                    
     9      (1,1,9)               0.0000000      SURF                                    
     10     (1,1,10)              0.0000000      SURF                                    
     11     (1,2,1)               0.0000000      SURF                                    
     12     (1,2,2)               0.0000000      SURF                                    
     13     (1,2,3)               0.0000000      SURF                                    
     14     (1,2,4)               0.0000000      SURF                                    
     15     (1,2,5)               0.0000000      SURF                                    
     16     (1,2,6)               0.0000000      SURF                                    
     17     (1,2,7)               0.0000000      SURF                                    
     18     (1,2,8)               0.0000000      SURF                                    
     19     (1,2,9)               0.0000000      SURF                                    
     20     (1,2,10)              0.0000000      SURF                                    
     21     (1,3,1)               0.0000000      SURF                                    
     22     (1,3,2)               0.0000000      SURF                                    
     23     (1,3,3)               0.0000000      SURF                                    
     24     (1,3,4)               0.0000000      SURF                                    
     25     (1,3,5)               0.0000000      SURF                                    
     26     (1,3,6)               0.0000000      SURF                                    
     27     (1,3,7)               0.0000000      SURF                                    
     28     (1,3,8)               0.0000000      SURF                                    
     29     (1,3,9)               0.0000000      SURF                                    
     30     (1,3,10)              0.0000000      SURF                                    
     31     (1,4,1)               0.0000000      SURF                                    
     32     (1,4,2)               0.0000000      SURF                                    
     33     (1,4,3)               0.0000000      SURF                                    
     34     (1,4,4)               0.0000000      SURF                                    
     35     (1,4,5)               0.0000000      SURF                                    
     36     (1,4,6)               0.0000000      SURF                                    
     37     (1,4,7)               0.0000000      SURF                                    
     38     (1,4,8)               0.0000000      SURF                                    
     39     (1,4,9)               0.0000000      SURF                                    
     40     (1,4,10)              0.0000000      SURF                                    
     41     (1,5,1)               0.0000000      SURF                                    
     42     (1,5,2)               0.0000000      SURF                                    
     43     (1,5,3)               0.0000000      SURF                                    
     44     (1,5,4)               0.0000000      SURF                                    
     45     (1,5,5)               0.0000000      SURF                                    
     46     (1,5,6)               0.0000000      SURF                                    
     47     (1,5,7)               0.0000000      SURF                                    
     48     (1,5,8)               0.0000000      SURF                                    
     49     (1,5,9)               0.0000000      SURF                                    
     50     (1,5,10)              0.0000000      SURF                                    
     51     (1,6,1)               0.0000000      SURF                                    
     52     (1,6,2)               0.0000000      SURF                                    
     53     (1,6,3)               0.0000000      SURF                                    
     54     (1,6,4)               0.0000000      SURF                                    
     55     (1,6,5)               0.0000000      SURF                                    
     56     (1,6,6)               0.0000000      SURF                                    
     57     (1,6,7)              -3.40456609E-07 SURF                                    
     58     (1,6,8)               0.0000000      SURF                                    
     59     (1,6,9)               0.0000000      SURF                                    
     60     (1,6,10)              0.0000000      SURF                                    
     61     (1,7,1)               0.0000000      SURF                                    
     62     (1,7,2)               0.0000000      SURF                                    
     63     (1,7,3)               0.0000000      SURF                                    
     64     (1,7,4)               0.0000000      SURF                                    
     65     (1,7,5)               0.0000000      SURF                                    
     66     (1,7,6)               0.0000000      SURF                                    
     67     (1,7,7)               0.0000000      SURF                                    
     68     (1,7,8)               0.0000000      SURF                                    
     69     (1,7,9)               0.0000000      SURF                                    
     70     (1,7,10)              0.0000000      SURF                                    
     71     (1,8,1)               0.0000000      SURF                                    
     72     (1,8,2)               0.0000000      SURF                                    
     73     (1,8,3)               0.0000000      SURF                                    
     74     (1,8,4)               0.0000000      SURF                                    
     75     (1,8,5)               0.0000000      SURF                                    
     76     (1,8,6)               0.0000000      SURF                                    
     77     (1,8,7)               0.0000000      SURF                                    
     78     (1,8,8)               0.0000000      SURF                                    
     79     (1,8,9)               0.0000000      SURF                                    
     80     (1,8,10)              0.0000000      SURF                                    
     81     (1,9,1)               0.0000000      SURF                                    
     82     (1,9,2)               0.0000000      SURF                                    
     83     (1,9,3)               0.0000000      SURF                                    
     84     (1,9,4)               0.0000000      SURF                                    
     85     (1,9,5)               0.0000000      SURF                                    
     86     (1,9,6)               0.0000000      SURF                                    
     87     (1,9,7)               0.0000000      SURF                                    
     88     (1,9,8)               0.0000000      SURF                                    
     89     (1,9,9)               0.0000000      SURF                                    
     90     (1,9,10)              0.0000000      SURF                                    
     91     (1,10,1)              0.0000000      SURF                                    
     92     (1,10,2)              0.0000000      SURF                                    
     93     (1,10,3)              0.0000000      SURF                                    
     94     (1,10,4)              0.0000000      SURF                                    
     95     (1,10,5)              0.0000000      SURF                                    
     96     (1,10,6)              0.0000000      SURF                                    
     97     (1,10,7)              0.0000000      SURF                                    
     98     (1,10,8)              0.0000000      SURF                                    
     99     (1,10,9)              0.0000000      SURF                                    
    100     (1,10,10)             0.0000000      SURF                                    
    101     (1,11,1)              0.0000000      SURF                                    
    102     (1,11,2)              0.0000000      SURF                                    
    103     (1,11,3)              0.0000000      SURF                                    
    104     (1,11,4)              0.0000000      SURF                                    
    105     (1,11,5)              0.0000000      SURF                                    
    106     (1,11,6)              0.0000000      SURF                                    
    107     (1,11,7)              0.0000000      SURF                                    
    108     (1,11,8)              0.0000000      SURF                                    
    109     (1,11,9)              0.0000000      SURF                                    
    110     (1,11,10)             0.0000000      SURF                                    
    111     (1,12,1)              0.0000000      SURF                                    
    112     (1,12,2)              0.0000000      SURF                                    
    113     (1,12,3)              0.0000000      SURF                                    
    114     (1,12,4)              0.0000000      SURF                                    
    115     (1,12,5)              0.0000000      SURF                                    
    116     (1,12,6)              0.0000000      SURF                                    
    117     (1,12,7)              0.0000000      SURF                                    
    118     (1,12,8)              0.0000000      SURF                                    
    119     (1,12,9)              0.0000000      SURF                                    
    120     (1,12,10)             0.0000000      SURF                                    
    121     (1,13,1)              0.0000000      SURF                                    
    122     (1,13,2)              0.0000000      SURF                                    
    123     (1,13,3)              0.0000000      SURF                                    
    124     (1,13,4)              0.0000000      SURF                                    
    125     (1,13,5)              0.0000000      SURF                                    
    126     (1,13,6)              0.0000000      SURF                                    
    127     (1,13,7)              0.0000000      SURF                                    
    128     (1,13,8)              0.0000000      SURF                                    
    129     (1,13,9)              0.0000000      SURF                                    
    130     (1,13,10)             0.0000000      SURF                                    
    131     (1,14,1)              0.0000000      SURF                                    
    132     (1,14,2)              0.0000000      SURF                                    
    133     (1,14,3)              0.0000000      SURF                                    
    134     (1,14,4)              0.0000000      SURF                                    
    135     (1,14,5)              0.0000000      SURF                                    
    136     (1,14,6)              0.0000000      SURF                                    
    137     (1,14,7)              0.0000000      SURF                                    
    138     (1,14,8)              0.0000000      SURF                                    
    139     (1,14,9)              0.0000000      SURF                                    
    140     (1,14,10)             0.0000000      SURF                                    
    141     (1,15,1)              0.0000000      SURF                                    
    142     (1,15,2)              0.0000000      SURF                                    
    143     (1,15,3)              0.0000000      SURF                                    
    144     (1,15,4)              0.0000000      SURF                                    
    145     (1,15,5)              0.0000000      SURF                                    
    146     (1,15,6)              0.0000000      SURF                                    
    147     (1,15,7)              0.0000000      SURF                                    
    148     (1,15,8)              0.0000000      SURF                                    
    149     (1,15,9)              0.0000000      SURF                                    
    150     (1,15,10)             0.0000000      SURF                                    
 ----------------------------------------------------------------------------------------




 API PACKAGE (MAR) FLOW RATES   PERIOD      2   STEP       56
 -----------------------------------------------
   NUMBER   CELLID                    RATE      
 -----------------------------------------------
     1      (1,6,5)               35.330760     
     2      (1,6,6)               35.330760     
     3      (1,6,7)               35.330760     
     4      (1,10,5)              34.381618     
     5      (1,10,6)              34.381618     
     6      (1,10,7)              34.381618     
 -----------------------------------------------



1
  HEAD IN LAYER   1 AT END OF TIME STEP  56 IN STRESS PERIOD    2
  ---------------------------------------------------------------------------

            1           2           3           4           5           6           7           8           9          10
 ........................................................................................................................
   1   4.7065E-03  7.7683E-03  1.3969E-02  2.2466E-02  3.0370E-02  3.3558E-02  3.0511E-02  2.2916E-02  1.5169E-02  1.0611E-02
   2   8.0731E-03  1.3760E-02  2.5685E-02  4.2856E-02  5.9623E-02  6.6218E-02  5.9854E-02  4.3602E-02  2.7718E-02  1.8709E-02
   3   1.4729E-02  2.6127E-02  5.1257E-02  9.0307E-02  0.1318      0.1469      0.1322      9.1613E-02  5.4903E-02  3.5295E-02
   4   2.2636E-02  4.2114E-02  8.8512E-02  0.1703      0.2722      0.3025      0.2728      0.1723      9.3999E-02  5.6390E-02
   5   2.5173E-02  4.9495E-02  0.1159      0.2643      0.5228      0.5606      0.5234      0.2663      0.1219      6.5480E-02
   6   1.2369E-02  2.3951E-02  7.0028E-02  0.2578      0.9996      0.9145       1.000      0.2590      7.3089E-02  3.1298E-02
   7  -1.6327E-02 -4.8103E-02 -0.1445     -0.3817     -0.9088      -2.130     -0.9089     -0.3821     -0.1475     -6.0882E-02
   8  -3.3578E-02 -9.3369E-02 -0.2903     -0.8704      -2.639      -9.238      -2.639     -0.8720     -0.2970     -0.1184    
   9  -1.8625E-02 -5.0945E-02 -0.1479     -0.3849     -0.9120      -2.133     -0.9121     -0.3857     -0.1515     -6.4917E-02
  10   8.5595E-03  1.9197E-02  6.4264E-02  0.2515      0.9852      0.9000      0.9855      0.2523      6.6276E-02  2.4572E-02
  11   2.0943E-02  4.4025E-02  0.1088      0.2563      0.5144      0.5523      0.5148      0.2579      0.1136      5.7788E-02
  12   1.8974E-02  3.7196E-02  8.1654E-02  0.1618      0.2628      0.2928      0.2632      0.1633      8.6145E-02  4.9512E-02
  13   1.2120E-02  2.2520E-02  4.5975E-02  8.3278E-02  0.1235      0.1382      0.1238      8.4281E-02  4.8914E-02  3.0268E-02
  14   6.4351E-03  1.1450E-02  2.2196E-02  3.8035E-02  5.3765E-02  5.9953E-02  5.3931E-02  3.8593E-02  2.3786E-02  1.5498E-02
  15   3.6138E-03  6.2091E-03  1.1573E-02  1.9090E-02  2.6198E-02  2.9069E-02  2.6296E-02  1.9415E-02  1.2479E-02  8.4473E-03

 HEAD WILL BE SAVED ON UNIT 1100 AT END OF TIME STEP   56, STRESS PERIOD    2


  VOLUME BUDGET FOR ENTIRE MODEL AT END OF TIME STEP   56, STRESS PERIOD   2
  ---------------------------------------------------------------------------------------------------

     CUMULATIVE VOLUME      L**3       RATES FOR THIS TIME STEP      L**3/T          PACKAGE NAME    
     ------------------                 ------------------------                     ----------------

           IN:                                      IN:
           ---                                      ---
              STO-SS =          22.3744                STO-SS =       1.1785E-02     STORAGE                          
              STO-SY =       56097.4587                STO-SY =          25.0162     STORAGE                          
                 WEL =           0.0000                   WEL =           0.0000     WEL-1                            
                 DRN =           0.0000                   DRN =           0.0000     DRN-0                            
                 API =      113938.9654                   API =         209.1371     MAR                              
                 CHD =       2.0279E-08                   CHD =           0.0000     CHD_0                            

            TOTAL IN =      170058.7985              TOTAL IN =         234.1651

          OUT:                                     OUT:
          ----                                     ----
              STO-SS =          18.7312                STO-SS =       1.2673E-02     STORAGE                          
              STO-SY =       36532.2955                STO-SY =          25.0153     STORAGE                          
                 WEL =      133507.7716                   WEL =         209.1371     WEL-1                            
                 DRN =       1.8846E-04                   DRN =       3.4046E-07     DRN-0                            
                 API =           0.0000                   API =           0.0000     MAR                              
                 CHD =       2.0705E-08                   CHD =           0.0000     CHD_0                            

           TOTAL OUT =      170058.7985             TOTAL OUT =         234.1651

            IN - OUT =      -1.2139E-06              IN - OUT =       9.0589E-10

 PERCENT DISCREPANCY =          -0.00     PERCENT DISCREPANCY =           0.00




         TIME SUMMARY AT END OF TIME STEP   56 IN STRESS PERIOD    2
                    SECONDS     MINUTES      HOURS       DAYS        YEARS
                    -----------------------------------------------------------
   TIME STEP LENGTH 8.64000E+05  14400.      240.00      10.000     2.73785E-02
 STRESS PERIOD TIME 4.83840E+07 8.06400E+05  13440.      560.00      1.5332    
         TOTAL TIME 4.84704E+07 8.07840E+05  13464.      561.00      1.5359    


end timestep


start timestep kper="2" kstp="57" mode="normal"

 UBDSV1 SAVING           STO-SS ON UNIT   1099 AT TIME STEP     57, STRESS PERIOD      2
 UBDSV1 SAVING           STO-SY ON UNIT   1099 AT TIME STEP     57, STRESS PERIOD      2
 UBDSV1 SAVING     FLOW-JA-FACE ON UNIT   1099 AT TIME STEP     57, STRESS PERIOD      2
 UBDSV06 SAVING       DATA-SPDIS IN MODEL GWF              PACKAGE NPF             CONNECTED TO MODEL GWF              PACKAGE NPF              ON UNIT   1099 AT TIME STEP     57, STRESS PERIOD      2
 UBDSV06 SAVING              WEL IN MODEL GWF              PACKAGE GWF             CONNECTED TO MODEL GWF              PACKAGE WEL-1            ON UNIT   1099 AT TIME STEP     57, STRESS PERIOD      2
 UBDSV06 SAVING              DRN IN MODEL GWF              PACKAGE GWF             CONNECTED TO MODEL GWF              PACKAGE DRN-0            ON UNIT   1099 AT TIME STEP     57, STRESS PERIOD      2
 UBDSV06 SAVING              API IN MODEL GWF              PACKAGE GWF             CONNECTED TO MODEL GWF              PACKAGE MAR              ON UNIT   1099 AT TIME STEP     57, STRESS PERIOD      2
 UBDSV06 SAVING              CHD IN MODEL GWF              PACKAGE GWF             CONNECTED TO MODEL GWF              PACKAGE CHD_0            ON UNIT   1099 AT TIME STEP     57, STRESS PERIOD      2

    CALCULATED INTERCELL FLOW FOR PERIOD 2 STEP 57
(1,1,1): (1,1,2) 3.200856E-02 (1,2,1) 3.496007E-02
(1,1,2): (1,1,1) -3.200856E-02 (1,1,3) 6.456302E-02 (1,2,2) 6.172656E-02
(1,1,3): (1,1,2) -6.456302E-02 (1,1,4) 8.809433E-02 (1,2,3) 0.119993
(1,1,4): (1,1,3) -8.809433E-02 (1,1,5) 8.169040E-02 (1,2,4) 0.208245
(1,1,5): (1,1,4) -8.169040E-02 (1,1,6) 3.295746E-02 (1,2,5) 0.298535
(1,1,6): (1,1,5) -3.295746E-02 (1,1,7) -3.140193E-02 (1,2,6) 0.333337
(1,1,7): (1,1,6) 3.140193E-02 (1,1,8) -7.834390E-02 (1,2,7) 0.299500
(1,1,8): (1,1,7) 7.834390E-02 (1,1,9) -8.006845E-02 (1,2,8) 0.211390
(1,1,9): (1,1,8) 8.006845E-02 (1,1,10) -4.719562E-02 (1,2,9) 0.128715
(1,1,10): (1,1,9) 4.719562E-02 (1,2,10) 8.353770E-02
(1,2,1): (1,1,1) -3.496007E-02 (1,2,2) 5.877427E-02 (1,3,1) 6.845575E-02
(1,2,2): (1,1,2) -6.172656E-02 (1,2,1) -5.877427E-02 (1,2,3) 0.122831 (1,3,2) 0.126313
(1,2,3): (1,1,3) -0.119993 (1,2,2) -0.122831 (1,2,4) 0.176319 (1,3,3) 0.260286
(1,2,4): (1,1,4) -0.208245 (1,2,3) -0.176319 (1,2,5) 0.171868 (1,3,4) 0.483188
(1,2,5): (1,1,5) -0.298535 (1,2,4) -0.171868 (1,2,6) 6.766866E-02 (1,3,5) 0.736306
(1,2,6): (1,1,6) -0.333337 (1,2,5) -6.766866E-02 (1,2,7) -6.514996E-02 (1,3,6) 0.824954
(1,2,7): (1,1,7) -0.299500 (1,2,6) 6.514996E-02 (1,2,8) -0.166338 (1,3,7) 0.738121
(1,2,8): (1,1,8) -0.211390 (1,2,7) 0.166338 (1,2,9) -0.162704 (1,3,8) 0.489144
(1,2,9): (1,1,9) -0.128715 (1,2,8) 0.162704 (1,2,10) -9.235695E-02 (1,3,9) 0.277101
(1,2,10): (1,1,10) -8.353770E-02 (1,2,9) 9.235695E-02 (1,3,10) 0.169683
(1,3,1): (1,2,1) -6.845575E-02 (1,3,2) 0.116626 (1,4,1) 7.987853E-02
(1,3,2): (1,2,2) -0.126313 (1,3,1) -0.116626 (1,3,3) 0.256799 (1,4,2) 0.160958
(1,3,3): (1,2,3) -0.260286 (1,3,2) -0.256799 (1,3,4) 0.399038 (1,4,3) 0.375916
(1,3,4): (1,2,4) -0.483188 (1,3,3) -0.399038 (1,3,5) 0.424222 (1,4,4) 0.813954
(1,3,5): (1,2,5) -0.736306 (1,3,4) -0.424222 (1,3,6) 0.155748 (1,4,5) 1.44330
(1,3,6): (1,2,6) -0.824954 (1,3,5) -0.155748 (1,3,7) -0.151422 (1,4,6) 1.60419
(1,3,7): (1,2,7) -0.738121 (1,3,6) 0.151422 (1,3,8) -0.414537 (1,4,7) 1.44530
(1,3,8): (1,2,8) -0.489144 (1,3,7) 0.414537 (1,3,9) -0.374509 (1,4,8) 0.820507
(1,3,9): (1,2,9) -0.277101 (1,3,8) 0.374509 (1,3,10) -0.199693 (1,4,9) 0.394898
(1,3,10): (1,2,10) -0.169683 (1,3,9) 0.199693 (1,4,10) 0.212745
(1,4,1): (1,3,1) -7.987853E-02 (1,4,2) 0.197735 (1,5,1) 2.273604E-02
(1,4,2): (1,3,2) -0.160958 (1,4,1) -0.197735 (1,4,3) 0.471958 (1,5,2) 6.955541E-02
(1,4,3): (1,3,3) -0.375916 (1,4,2) -0.471958 (1,4,4) 0.837173 (1,5,3) 0.268992
(1,4,4): (1,3,4) -0.813954 (1,4,3) -0.837173 (1,4,5) 1.05126 (1,5,4) 0.954271
(1,4,5): (1,3,5) -1.44330 (1,4,4) -1.05126 (1,4,6) 0.314740 (1,5,5) 2.62848
(1,4,6): (1,3,6) -1.60419 (1,4,5) -0.314740 (1,4,7) -0.308427 (1,5,6) 2.71751
(1,4,7): (1,3,7) -1.44530 (1,4,6) 0.308427 (1,4,8) -1.03694 (1,5,7) 2.62906
(1,4,8): (1,3,8) -0.820507 (1,4,7) 1.03694 (1,4,9) -0.800034 (1,5,8) 0.955826
(1,4,9): (1,3,9) -0.394898 (1,4,8) 0.800034 (1,4,10) -0.381823 (1,5,9) 0.273470
(1,4,10): (1,3,10) -0.212745 (1,4,9) 0.381823 (1,5,10) 8.509407E-02
(1,5,1): (1,4,1) -2.273604E-02 (1,5,2) 0.244636 (1,6,1) -0.135100
(1,5,2): (1,4,2) -6.955541E-02 (1,5,1) -0.244636 (1,5,3) 0.672179 (1,6,2) -0.267368
(1,5,3): (1,4,3) -0.268992 (1,5,2) -0.672179 (1,5,4) 1.52615 (1,6,3) -0.480815
(1,5,4): (1,4,4) -0.954271 (1,5,3) -1.52615 (1,5,5) 2.72694 (1,6,4) -8.729943E-02
(1,5,5): (1,4,5) -2.62848 (1,5,4) -2.72694 (1,5,6) 0.402116 (1,6,5) 5.22953
(1,5,6): (1,4,6) -2.71751 (1,5,5) -0.402116 (1,5,7) -0.395229 (1,6,6) 3.85126
(1,5,7): (1,4,7) -2.62906 (1,5,6) 0.395229 (1,5,8) -2.71140 (1,6,7) 5.22687
(1,5,8): (1,4,8) -0.955826 (1,5,7) 2.71140 (1,5,9) -1.48580 (1,6,8) -9.705099E-02
(1,5,9): (1,4,9) -0.273470 (1,5,8) 1.48580 (1,5,10) -0.570744 (1,6,9) -0.512372
(1,5,10): (1,4,10) -8.509407E-02 (1,5,9) 0.570744 (1,6,10) -0.358805
(1,6,1): (1,5,1) 0.135100 (1,6,2) 0.112397 (1,7,1) -0.295224
(1,6,2): (1,5,2) 0.267368 (1,6,1) -0.112397 (1,6,3) 0.458336 (1,7,2) -0.734599
(1,6,3): (1,5,3) 0.480815 (1,6,2) -0.458336 (1,6,4) 1.92514 (1,7,3) -2.18036
(1,6,4): (1,5,4) 8.729943E-02 (1,6,3) -1.92514 (1,6,5) 8.17320 (1,7,4) -6.58910
(1,6,5): (1,5,5) -5.22953 (1,6,4) -8.17320 (1,6,6) -0.929681 (1,7,5) -21.0320
(1,6,6): (1,5,6) -3.85126 (1,6,5) 0.929681 (1,6,7) 0.934039 (1,7,6) -33.2624
(1,6,7): (1,5,7) -5.22687 (1,6,6) -0.934039 (1,6,8) -8.16466 (1,7,7) -21.0372
(1,6,8): (1,5,8) 9.705099E-02 (1,6,7) 8.16466 (1,6,9) -1.90669 (1,7,8) -6.60769
(1,6,9): (1,5,9) 0.512372 (1,6,8) 1.90669 (1,6,10) -0.417090 (1,7,9) -2.24376
(1,6,10): (1,5,10) 0.358805 (1,6,9) 0.417090 (1,7,10) -0.941679
(1,7,1): (1,6,1) 0.295224 (1,7,2) -0.325321 (1,8,1) -0.175768
(1,7,2): (1,6,2) 0.734599 (1,7,1) 0.325321 (1,7,3) -0.972477 (1,8,2) -0.455838
(1,7,3): (1,6,3) 2.18036 (1,7,2) 0.972477 (1,7,4) -2.34668 (1,8,3) -1.44546
(1,7,4): (1,6,4) 6.58910 (1,7,3) 2.34668 (1,7,5) -5.06274 (1,8,4) -4.71139
(1,7,5): (1,6,5) 21.0320 (1,7,4) 5.06274 (1,7,6) -11.0852 (1,8,5) -15.7316
(1,7,6): (1,6,6) 33.2624 (1,7,5) 11.0852 (1,7,7) 11.0850 (1,8,6) -55.9122
(1,7,7): (1,6,7) 21.0372 (1,7,6) -11.0850 (1,7,8) 5.05743 (1,8,7) -15.7345
(1,7,8): (1,6,8) 6.60769 (1,7,7) -5.05743 (1,7,9) 2.31959 (1,8,8) -4.72211
(1,7,9): (1,6,9) 2.24376 (1,7,8) -2.31959 (1,7,10) 0.869266 (1,8,9) -1.48231
(1,7,10): (1,6,10) 0.941679 (1,7,9) -0.869266 (1,8,10) -0.578773
(1,8,1): (1,7,1) 0.175768 (1,8,2) -0.605814 (1,9,1) 0.152914
(1,8,2): (1,7,2) 0.455838 (1,8,1) 0.605814 (1,8,3) -1.96734 (1,9,2) 0.427876
(1,8,3): (1,7,3) 1.44546 (1,8,2) 1.96734 (1,8,4) -5.64401 (1,9,3) 1.41234
(1,8,4): (1,7,4) 4.71139 (1,8,3) 5.64401 (1,8,5) -16.1283 (1,9,4) 4.67813
(1,8,5): (1,7,5) 15.7316 (1,8,4) 16.1283 (1,8,6) -48.5175 (1,9,5) 15.6901
(1,8,6): (1,7,6) 55.9122 (1,8,5) 48.5175 (1,8,7) 48.5127 (1,9,6) 55.8569
(1,8,7): (1,7,7) 15.7345 (1,8,6) -48.5127 (1,8,8) 16.1131 (1,9,7) 15.6918
(1,8,8): (1,7,8) 4.72211 (1,8,7) -16.1131 (1,8,9) 5.58836 (1,9,8) 4.68584
(1,8,9): (1,7,9) 1.48231 (1,8,8) -5.58836 (1,8,10) 1.77550 (1,9,9) 1.44274
(1,8,10): (1,7,10) 0.578773 (1,8,9) -1.77550 (1,9,10) 0.539096
(1,9,1): (1,8,1) -0.152914 (1,9,2) -0.330359 (1,10,1) 0.279947
(1,9,2): (1,8,2) -0.427876 (1,9,1) 0.330359 (1,9,3) -0.977332 (1,10,2) 0.715191
(1,9,3): (1,8,3) -1.41234 (1,9,2) 0.977332 (1,9,4) -2.34568 (1,10,3) 2.15498
(1,9,4): (1,8,4) -4.67813 (1,9,3) 2.34568 (1,9,5) -5.06625 (1,10,4) 6.54906
(1,9,5): (1,8,5) -15.6901 (1,9,4) 5.06625 (1,9,6) -11.0792 (1,10,5) 20.8460
(1,9,6): (1,8,6) -55.8569 (1,9,5) 11.0792 (1,9,7) 11.0779 (1,10,6) 33.0482
(1,9,7): (1,8,7) -15.6918 (1,9,6) -11.0779 (1,9,8) 5.05899 (1,10,7) 20.8504
(1,9,8): (1,8,8) -4.68584 (1,9,7) -5.05899 (1,9,9) 2.31503 (1,10,8) 6.56562
(1,9,9): (1,8,9) -1.44274 (1,9,8) -2.31503 (1,9,10) 0.868798 (1,10,9) 2.21405
(1,9,10): (1,8,10) -0.539096 (1,9,9) -0.868798 (1,10,10) 0.914241
(1,10,1): (1,9,1) -0.279947 (1,10,2) 0.103329 (1,11,1) 0.130642
(1,10,2): (1,9,2) -0.715191 (1,10,1) -0.103329 (1,10,3) 0.447893 (1,11,2) 0.259912
(1,10,3): (1,9,3) -2.15498 (1,10,2) -0.447893 (1,10,4) 1.91297 (1,11,3) 0.467407
(1,10,4): (1,9,4) -6.54906 (1,10,3) -1.91297 (1,10,5) 8.04020 (1,11,4) 7.519798E-02
(1,10,5): (1,9,5) -20.8460 (1,10,4) -8.04020 (1,10,6) -0.934308 (1,11,5) -5.12428
(1,10,6): (1,9,6) -33.0482 (1,10,5) 0.934308 (1,10,7) 0.936865 (1,11,6) -3.74225
(1,10,7): (1,9,7) -20.8504 (1,10,6) -0.936865 (1,10,8) -8.03488 (1,11,7) -5.12178
(1,10,8): (1,9,8) -6.56562 (1,10,7) 8.03488 (1,10,9) -1.90044 (1,11,8) 8.442334E-02
(1,10,9): (1,9,9) -2.21405 (1,10,8) 1.90044 (1,10,10) -0.415651 (1,11,9) 0.497741
(1,10,10): (1,9,10) -0.914241 (1,10,9) 0.415651 (1,11,10) 0.348618
(1,11,1): (1,10,1) -0.130642 (1,11,2) 0.232564 (1,12,1) -1.729431E-02
(1,11,2): (1,10,2) -0.259912 (1,11,1) -0.232564 (1,11,3) 0.655768 (1,12,2) -6.434104E-02
(1,11,3): (1,10,3) -0.467407 (1,11,2) -0.655768 (1,11,4) 1.51530 (1,12,3) -0.266551
(1,11,4): (1,10,4) -7.519798E-02 (1,11,3) -1.51530 (1,11,5) 2.71493 (1,12,4) -0.958248
(1,11,5): (1,10,5) 5.12428 (1,11,4) -2.71493 (1,11,6) 0.402180 (1,12,5) -2.63067
(1,11,6): (1,10,6) 3.74225 (1,11,5) -0.402180 (1,11,7) -0.397233 (1,12,6) -2.72302
(1,11,7): (1,10,7) 5.12178 (1,11,6) 0.397233 (1,11,8) -2.70285 (1,12,7) -2.63093
(1,11,8): (1,10,8) -8.442334E-02 (1,11,7) 2.70285 (1,11,9) -1.48154 (1,12,8) -0.959025
(1,11,9): (1,10,9) -0.497741 (1,11,8) 1.48154 (1,11,10) -0.564870 (1,12,9) -0.269450
(1,11,10): (1,10,10) -0.348618 (1,11,9) 0.564870 (1,12,10) -7.739808E-02
(1,12,1): (1,11,1) 1.729431E-02 (1,12,2) 0.185439 (1,13,1) -6.946489E-02
(1,12,2): (1,11,2) 6.434104E-02 (1,12,1) -0.185439 (1,12,3) 0.452789 (1,13,2) -0.148102
(1,12,3): (1,11,3) 0.266551 (1,12,2) -0.452789 (1,12,4) 0.819963 (1,13,3) -0.360457
(1,12,4): (1,11,4) 0.958248 (1,12,3) -0.819963 (1,12,5) 1.04125 (1,13,4) -0.798675
(1,12,5): (1,11,5) 2.63067 (1,12,4) -1.04125 (1,12,6) 0.311558 (1,13,5) -1.43039
(1,12,6): (1,11,6) 2.72302 (1,12,5) -0.311558 (1,12,7) -0.306872 (1,13,6) -1.59281
(1,12,7): (1,11,7) 2.63093 (1,12,6) 0.306872 (1,12,8) -1.02987 (1,13,7) -1.43189
(1,12,8): (1,11,8) 0.959025 (1,12,7) 1.02987 (1,12,9) -0.788562 (1,13,8) -0.803880
(1,12,9): (1,11,9) 0.269450 (1,12,8) 0.788562 (1,12,10) -0.372265 (1,13,9) -0.376506
(1,12,10): (1,11,10) 7.739808E-02 (1,12,9) 0.372265 (1,13,10) -0.194525
(1,13,1): (1,12,1) 6.946489E-02 (1,13,2) 0.106773 (1,14,1) -5.873379E-02
(1,13,2): (1,12,2) 0.148102 (1,13,1) -0.106773 (1,13,3) 0.240241 (1,14,2) -0.113452
(1,13,3): (1,12,3) 0.360457 (1,13,2) -0.240241 (1,13,4) 0.381656 (1,14,3) -0.242622
(1,13,4): (1,12,4) 0.798675 (1,13,3) -0.381656 (1,13,5) 0.411843 (1,14,4) -0.461399
(1,13,5): (1,12,5) 1.43039 (1,13,4) -0.411843 (1,13,6) 0.151047 (1,14,5) -0.712451
(1,13,6): (1,12,6) 1.59281 (1,13,5) -0.151047 (1,13,7) -0.147851 (1,14,6) -0.800450
(1,13,7): (1,12,7) 1.43189 (1,13,6) 0.147851 (1,13,8) -0.404226 (1,14,7) -0.713833
(1,13,8): (1,12,8) 0.803880 (1,13,7) 0.404226 (1,13,9) -0.361251 (1,14,8) -0.466152
(1,13,9): (1,12,9) 0.376506 (1,13,8) 0.361251 (1,13,10) -0.190290 (1,14,9) -0.256738
(1,13,10): (1,12,10) 0.194525 (1,13,9) 0.190290 (1,14,10) -0.151634
(1,14,1): (1,13,1) 5.873379E-02 (1,14,2) 5.205846E-02 (1,15,1) -2.946222E-02
(1,14,2): (1,13,2) 0.113452 (1,14,1) -5.205846E-02 (1,14,3) 0.111074 (1,15,2) -5.423464E-02
(1,14,3): (1,13,3) 0.242622 (1,14,2) -0.111074 (1,14,4) 0.163050 (1,15,3) -0.109190
(1,14,4): (1,13,4) 0.461399 (1,14,3) -0.163050 (1,14,5) 0.161522 (1,15,4) -0.194032
(1,14,5): (1,13,5) 0.712451 (1,14,4) -0.161522 (1,14,6) 6.359701E-02 (1,15,5) -0.281953
(1,14,6): (1,13,6) 0.800450 (1,14,5) -6.359701E-02 (1,14,7) -6.177764E-02 (1,15,6) -0.315862
(1,14,7): (1,13,7) 0.713833 (1,14,6) 6.177764E-02 (1,14,8) -0.157287 (1,15,7) -0.282682
(1,14,8): (1,13,8) 0.466152 (1,14,7) 0.157287 (1,14,9) -0.152053 (1,15,8) -0.196513
(1,14,9): (1,13,9) 0.256738 (1,14,8) 0.152053 (1,14,10) -8.525518E-02 (1,15,9) -0.116399
(1,14,10): (1,13,10) 0.151634 (1,14,9) 8.525518E-02 (1,15,10) -7.306895E-02
(1,15,1): (1,14,1) 2.946222E-02 (1,15,2) 2.728658E-02
(1,15,2): (1,14,2) 5.423464E-02 (1,15,1) -2.728658E-02 (1,15,3) 5.611815E-02
(1,15,3): (1,14,3) 0.109190 (1,15,2) -5.611815E-02 (1,15,4) 7.823354E-02
(1,15,4): (1,14,4) 0.194032 (1,15,3) -7.823354E-02 (1,15,5) 7.370499E-02
(1,15,5): (1,14,5) 0.281953 (1,15,4) -7.370499E-02 (1,15,6) 2.977219E-02
(1,15,6): (1,14,6) 0.315862 (1,15,5) -2.977219E-02 (1,15,7) -2.868122E-02
(1,15,7): (1,14,7) 0.282682 (1,15,6) 2.868122E-02 (1,15,8) -7.122418E-02
(1,15,8): (1,14,8) 0.196513 (1,15,7) 7.122418E-02 (1,15,9) -7.197412E-02
(1,15,9): (1,14,9) 0.116399 (1,15,8) 7.197412E-02 (1,15,10) -4.193813E-02
(1,15,10): (1,14,10) 7.306895E-02 (1,15,9) 4.193813E-02

 WEL PACKAGE (WEL-1) FLOW RATES   PERIOD      2   STEP       57
 ----------------------------------------------------------------------------------------
   NUMBER   CELLID                    RATE       NAME                                    
 ----------------------------------------------------------------------------------------
     1      (1,8,6)              -208.93082      WEL                                     
 ----------------------------------------------------------------------------------------




 DRN PACKAGE (DRN-0) FLOW RATES   PERIOD      2   STEP       57
 ----------------------------------------------------------------------------------------
   NUMBER   CELLID                    RATE       NAME                                    
 ----------------------------------------------------------------------------------------
     1      (1,1,1)               0.0000000      SURF                                    
     2      (1,1,2)               0.0000000      SURF                                    
     3      (1,1,3)               0.0000000      SURF                                    
     4      (1,1,4)               0.0000000      SURF                                    
     5      (1,1,5)               0.0000000      SURF                                    
     6      (1,1,6)               0.0000000      SURF                                    
     7      (1,1,7)               0.0000000      SURF                                    
     8      (1,1,8)               0.0000000      SURF                                    
     9      (1,1,9)               0.0000000      SURF                                    
     10     (1,1,10)              0.0000000      SURF                                    
     11     (1,2,1)               0.0000000      SURF                                    
     12     (1,2,2)               0.0000000      SURF                                    
     13     (1,2,3)               0.0000000      SURF                                    
     14     (1,2,4)               0.0000000      SURF                                    
     15     (1,2,5)               0.0000000      SURF                                    
     16     (1,2,6)               0.0000000      SURF                                    
     17     (1,2,7)               0.0000000      SURF                                    
     18     (1,2,8)               0.0000000      SURF                                    
     19     (1,2,9)               0.0000000      SURF                                    
     20     (1,2,10)              0.0000000      SURF                                    
     21     (1,3,1)               0.0000000      SURF                                    
     22     (1,3,2)               0.0000000      SURF                                    
     23     (1,3,3)               0.0000000      SURF                                    
     24     (1,3,4)               0.0000000      SURF                                    
     25     (1,3,5)               0.0000000      SURF                                    
     26     (1,3,6)               0.0000000      SURF                                    
     27     (1,3,7)               0.0000000      SURF                                    
     28     (1,3,8)               0.0000000      SURF                                    
     29     (1,3,9)               0.0000000      SURF                                    
     30     (1,3,10)              0.0000000      SURF                                    
     31     (1,4,1)               0.0000000      SURF                                    
     32     (1,4,2)               0.0000000      SURF                                    
     33     (1,4,3)               0.0000000      SURF                                    
     34     (1,4,4)               0.0000000      SURF                                    
     35     (1,4,5)               0.0000000      SURF                                    
     36     (1,4,6)               0.0000000      SURF                                    
     37     (1,4,7)               0.0000000      SURF                                    
     38     (1,4,8)               0.0000000      SURF                                    
     39     (1,4,9)               0.0000000      SURF                                    
     40     (1,4,10)              0.0000000      SURF                                    
     41     (1,5,1)               0.0000000      SURF                                    
     42     (1,5,2)               0.0000000      SURF                                    
     43     (1,5,3)               0.0000000      SURF                                    
     44     (1,5,4)               0.0000000      SURF                                    
     45     (1,5,5)               0.0000000      SURF                                    
     46     (1,5,6)               0.0000000      SURF                                    
     47     (1,5,7)               0.0000000      SURF                                    
     48     (1,5,8)               0.0000000      SURF                                    
     49     (1,5,9)               0.0000000      SURF                                    
     50     (1,5,10)              0.0000000      SURF                                    
     51     (1,6,1)               0.0000000      SURF                                    
     52     (1,6,2)               0.0000000      SURF                                    
     53     (1,6,3)               0.0000000      SURF                                    
     54     (1,6,4)               0.0000000      SURF                                    
     55     (1,6,5)               0.0000000      SURF                                    
     56     (1,6,6)               0.0000000      SURF                                    
     57     (1,6,7)              -3.38972313E-07 SURF                                    
     58     (1,6,8)               0.0000000      SURF                                    
     59     (1,6,9)               0.0000000      SURF                                    
     60     (1,6,10)              0.0000000      SURF                                    
     61     (1,7,1)               0.0000000      SURF                                    
     62     (1,7,2)               0.0000000      SURF                                    
     63     (1,7,3)               0.0000000      SURF                                    
     64     (1,7,4)               0.0000000      SURF                                    
     65     (1,7,5)               0.0000000      SURF                                    
     66     (1,7,6)               0.0000000      SURF                                    
     67     (1,7,7)               0.0000000      SURF                                    
     68     (1,7,8)               0.0000000      SURF                                    
     69     (1,7,9)               0.0000000      SURF                                    
     70     (1,7,10)              0.0000000      SURF                                    
     71     (1,8,1)               0.0000000      SURF                                    
     72     (1,8,2)               0.0000000      SURF                                    
     73     (1,8,3)               0.0000000      SURF                                    
     74     (1,8,4)               0.0000000      SURF                                    
     75     (1,8,5)               0.0000000      SURF                                    
     76     (1,8,6)               0.0000000      SURF                                    
     77     (1,8,7)               0.0000000      SURF                                    
     78     (1,8,8)               0.0000000      SURF                                    
     79     (1,8,9)               0.0000000      SURF                                    
     80     (1,8,10)              0.0000000      SURF                                    
     81     (1,9,1)               0.0000000      SURF                                    
     82     (1,9,2)               0.0000000      SURF                                    
     83     (1,9,3)               0.0000000      SURF                                    
     84     (1,9,4)               0.0000000      SURF                                    
     85     (1,9,5)               0.0000000      SURF                                    
     86     (1,9,6)               0.0000000      SURF                                    
     87     (1,9,7)               0.0000000      SURF                                    
     88     (1,9,8)               0.0000000      SURF                                    
     89     (1,9,9)               0.0000000      SURF                                    
     90     (1,9,10)              0.0000000      SURF                                    
     91     (1,10,1)              0.0000000      SURF                                    
     92     (1,10,2)              0.0000000      SURF                                    
     93     (1,10,3)              0.0000000      SURF                                    
     94     (1,10,4)              0.0000000      SURF                                    
     95     (1,10,5)              0.0000000      SURF                                    
     96     (1,10,6)              0.0000000      SURF                                    
     97     (1,10,7)              0.0000000      SURF                                    
     98     (1,10,8)              0.0000000      SURF                                    
     99     (1,10,9)              0.0000000      SURF                                    
    100     (1,10,10)             0.0000000      SURF                                    
    101     (1,11,1)              0.0000000      SURF                                    
    102     (1,11,2)              0.0000000      SURF                                    
    103     (1,11,3)              0.0000000      SURF                                    
    104     (1,11,4)              0.0000000      SURF                                    
    105     (1,11,5)              0.0000000      SURF                                    
    106     (1,11,6)              0.0000000      SURF                                    
    107     (1,11,7)              0.0000000      SURF                                    
    108     (1,11,8)              0.0000000      SURF                                    
    109     (1,11,9)              0.0000000      SURF                                    
    110     (1,11,10)             0.0000000      SURF                                    
    111     (1,12,1)              0.0000000      SURF                                    
    112     (1,12,2)              0.0000000      SURF                                    
    113     (1,12,3)              0.0000000      SURF                                    
    114     (1,12,4)              0.0000000      SURF                                    
    115     (1,12,5)              0.0000000      SURF                                    
    116     (1,12,6)              0.0000000      SURF                                    
    117     (1,12,7)              0.0000000      SURF                                    
    118     (1,12,8)              0.0000000      SURF                                    
    119     (1,12,9)              0.0000000      SURF                                    
    120     (1,12,10)             0.0000000      SURF                                    
    121     (1,13,1)              0.0000000      SURF                                    
    122     (1,13,2)              0.0000000      SURF                                    
    123     (1,13,3)              0.0000000      SURF                                    
    124     (1,13,4)              0.0000000      SURF                                    
    125     (1,13,5)              0.0000000      SURF                                    
    126     (1,13,6)              0.0000000      SURF                                    
    127     (1,13,7)              0.0000000      SURF                                    
    128     (1,13,8)              0.0000000      SURF                                    
    129     (1,13,9)              0.0000000      SURF                                    
    130     (1,13,10)             0.0000000      SURF                                    
    131     (1,14,1)              0.0000000      SURF                                    
    132     (1,14,2)              0.0000000      SURF                                    
    133     (1,14,3)              0.0000000      SURF                                    
    134     (1,14,4)              0.0000000      SURF                                    
    135     (1,14,5)              0.0000000      SURF                                    
    136     (1,14,6)              0.0000000      SURF                                    
    137     (1,14,7)              0.0000000      SURF                                    
    138     (1,14,8)              0.0000000      SURF                                    
    139     (1,14,9)              0.0000000      SURF                                    
    140     (1,14,10)             0.0000000      SURF                                    
    141     (1,15,1)              0.0000000      SURF                                    
    142     (1,15,2)              0.0000000      SURF                                    
    143     (1,15,3)              0.0000000      SURF                                    
    144     (1,15,4)              0.0000000      SURF                                    
    145     (1,15,5)              0.0000000      SURF                                    
    146     (1,15,6)              0.0000000      SURF                                    
    147     (1,15,7)              0.0000000      SURF                                    
    148     (1,15,8)              0.0000000      SURF                                    
    149     (1,15,9)              0.0000000      SURF                                    
    150     (1,15,10)             0.0000000      SURF                                    
 ----------------------------------------------------------------------------------------




 API PACKAGE (MAR) FLOW RATES   PERIOD      2   STEP       57
 -----------------------------------------------
   NUMBER   CELLID                    RATE      
 -----------------------------------------------
     1      (1,6,5)               35.362812     
     2      (1,6,6)               35.362812     
     3      (1,6,7)               35.362812     
     4      (1,10,5)              34.280796     
     5      (1,10,6)              34.280796     
     6      (1,10,7)              34.280796     
 -----------------------------------------------



1
  HEAD IN LAYER   1 AT END OF TIME STEP  57 IN STRESS PERIOD    2
  ---------------------------------------------------------------------------

            1           2           3           4           5           6           7           8           9          10
 ........................................................................................................................
   1   5.0412E-03  8.2394E-03  1.4686E-02  2.3475E-02  3.1618E-02  3.4903E-02  3.1773E-02  2.3964E-02  1.5976E-02  1.1264E-02
   2   8.5342E-03  1.4403E-02  2.6654E-02  4.4208E-02  6.1290E-02  6.8011E-02  6.1540E-02  4.5008E-02  2.8811E-02  1.9601E-02
   3   1.5369E-02  2.7001E-02  5.2546E-02  9.2086E-02  0.1339      0.1493      0.1344      9.3469E-02  5.6365E-02  3.6508E-02
   4   2.3339E-02  4.3027E-02  8.9803E-02  0.1721      0.2744      0.3050      0.2750      0.1741      9.5482E-02  5.7661E-02
   5   2.5606E-02  4.9948E-02  0.1164      0.2651      0.5242      0.5622      0.5248      0.2672      0.1225      6.6114E-02
   6   1.2131E-02  2.3344E-02  6.8865E-02  0.2566      0.9996      0.9151       1.000      0.2578      7.1881E-02  3.0469E-02
   7  -1.7356E-02 -4.9944E-02 -0.1477     -0.3859     -0.9125      -2.132     -0.9125     -0.3864     -0.1509     -6.3413E-02
   8  -3.4963E-02 -9.5757E-02 -0.2944     -0.8759      -2.644      -9.239      -2.644     -0.8776     -0.3014     -0.1217    
   9  -1.9642E-02 -5.2742E-02 -0.1510     -0.3892     -0.9163      -2.136     -0.9164     -0.3900     -0.1549     -6.7384E-02
  10   8.3298E-03  1.8643E-02  6.3152E-02  0.2498      0.9819      0.8968      0.9821      0.2505      6.5119E-02  2.3823E-02
  11   2.1366E-02  4.4519E-02  0.1094      0.2571      0.5153      0.5534      0.5158      0.2587      0.1143      5.8482E-02
  12   1.9640E-02  3.8114E-02  8.3020E-02  0.1637      0.2651      0.2954      0.2656      0.1653      8.7690E-02  5.0787E-02
  13   1.2707E-02  2.3360E-02  4.7271E-02  8.5114E-02  0.1258      0.1407      0.1261      8.6183E-02  5.0367E-02  3.1433E-02
  14   6.8416E-03  1.2041E-02  2.3123E-02  3.9364E-02  5.5427E-02  6.1748E-02  5.5608E-02  3.9966E-02  2.4821E-02  1.6317E-02
  15   3.8974E-03  6.6242E-03  1.2229E-02  2.0037E-02  2.7387E-02  3.0355E-02  2.7496E-02  2.0393E-02  1.3210E-02  9.0221E-03

 HEAD WILL BE SAVED ON UNIT 1100 AT END OF TIME STEP   57, STRESS PERIOD    2


  VOLUME BUDGET FOR ENTIRE MODEL AT END OF TIME STEP   57, STRESS PERIOD   2
  ---------------------------------------------------------------------------------------------------

     CUMULATIVE VOLUME      L**3       RATES FOR THIS TIME STEP      L**3/T          PACKAGE NAME    
     ------------------                 ------------------------                     ----------------

           IN:                                      IN:
           ---                                      ---
              STO-SS =          22.4905                STO-SS =       1.1609E-02     STORAGE                          
              STO-SY =       56343.4038                STO-SY =          24.5945     STORAGE                          
                 WEL =           0.0000                   WEL =           0.0000     WEL-1                            
                 DRN =           0.0000                   DRN =           0.0000     DRN-0                            
                 API =      116028.2736                   API =         208.9308     MAR                              
                 CHD =       2.0279E-08                   CHD =           0.0000     CHD_0                            

            TOTAL IN =      172394.1680              TOTAL IN =         233.5369

          OUT:                                     OUT:
          ----                                     ----
              STO-SS =          18.8558                STO-SS =       1.2458E-02     STORAGE                          
              STO-SY =       36778.2321                STO-SY =          24.5937     STORAGE                          
                 WEL =      135597.0799                   WEL =         208.9308     WEL-1                            
                 DRN =       1.9185E-04                   DRN =       3.3897E-07     DRN-0                            
                 API =           0.0000                   API =           0.0000     MAR                              
                 CHD =       2.0705E-08                   CHD =           0.0000     CHD_0                            

           TOTAL OUT =      172394.1680             TOTAL OUT =         233.5369

            IN - OUT =      -1.2050E-06              IN - OUT =       8.8843E-10

 PERCENT DISCREPANCY =          -0.00     PERCENT DISCREPANCY =           0.00




         TIME SUMMARY AT END OF TIME STEP   57 IN STRESS PERIOD    2
                    SECONDS     MINUTES      HOURS       DAYS        YEARS
                    -----------------------------------------------------------
   TIME STEP LENGTH 8.64000E+05  14400.      240.00      10.000     2.73785E-02
 STRESS PERIOD TIME 4.92480E+07 8.20800E+05  13680.      570.00      1.5606    
         TOTAL TIME 4.93344E+07 8.22240E+05  13704.      571.00      1.5633    


end timestep


start timestep kper="2" kstp="58" mode="normal"

 UBDSV1 SAVING           STO-SS ON UNIT   1099 AT TIME STEP     58, STRESS PERIOD      2
 UBDSV1 SAVING           STO-SY ON UNIT   1099 AT TIME STEP     58, STRESS PERIOD      2
 UBDSV1 SAVING     FLOW-JA-FACE ON UNIT   1099 AT TIME STEP     58, STRESS PERIOD      2
 UBDSV06 SAVING       DATA-SPDIS IN MODEL GWF              PACKAGE NPF             CONNECTED TO MODEL GWF              PACKAGE NPF              ON UNIT   1099 AT TIME STEP     58, STRESS PERIOD      2
 UBDSV06 SAVING              WEL IN MODEL GWF              PACKAGE GWF             CONNECTED TO MODEL GWF              PACKAGE WEL-1            ON UNIT   1099 AT TIME STEP     58, STRESS PERIOD      2
 UBDSV06 SAVING              DRN IN MODEL GWF              PACKAGE GWF             CONNECTED TO MODEL GWF              PACKAGE DRN-0            ON UNIT   1099 AT TIME STEP     58, STRESS PERIOD      2
 UBDSV06 SAVING              API IN MODEL GWF              PACKAGE GWF             CONNECTED TO MODEL GWF              PACKAGE MAR              ON UNIT   1099 AT TIME STEP     58, STRESS PERIOD      2
 UBDSV06 SAVING              CHD IN MODEL GWF              PACKAGE GWF             CONNECTED TO MODEL GWF              PACKAGE CHD_0            ON UNIT   1099 AT TIME STEP     58, STRESS PERIOD      2

    CALCULATED INTERCELL FLOW FOR PERIOD 2 STEP 58
(1,1,1): (1,1,2) 3.338407E-02 (1,2,1) 3.621057E-02
(1,1,2): (1,1,1) -3.338407E-02 (1,1,3) 6.703818E-02 (1,2,2) 6.340954E-02
(1,1,3): (1,1,2) -6.703818E-02 (1,1,4) 9.102093E-02 (1,2,3) 0.122438
(1,1,4): (1,1,3) -9.102093E-02 (1,1,5) 8.409672E-02 (1,2,4) 0.211584
(1,1,5): (1,1,4) -8.409672E-02 (1,1,6) 3.392188E-02 (1,2,5) 0.302623
(1,1,6): (1,1,5) -3.392188E-02 (1,1,7) -3.221907E-02 (1,2,6) 0.337729
(1,1,7): (1,1,6) 3.221907E-02 (1,1,8) -8.048361E-02 (1,2,7) 0.303645
(1,1,8): (1,1,7) 8.048361E-02 (1,1,9) -8.246506E-02 (1,2,8) 0.214886
(1,1,9): (1,1,8) 8.246506E-02 (1,1,10) -4.873257E-02 (1,2,9) 0.131505
(1,1,10): (1,1,9) 4.873257E-02 (1,2,10) 8.588005E-02
(1,2,1): (1,1,1) -3.621057E-02 (1,2,2) 6.058227E-02 (1,3,1) 7.019006E-02
(1,2,2): (1,1,2) -6.340954E-02 (1,2,1) -6.058227E-02 (1,2,3) 0.126069 (1,3,2) 0.128532
(1,2,3): (1,1,3) -0.122438 (1,2,2) -0.126069 (1,2,4) 0.180139 (1,3,3) 0.263357
(1,2,4): (1,1,4) -0.211584 (1,2,3) -0.180139 (1,2,5) 0.175021 (1,3,4) 0.487323
(1,2,5): (1,1,5) -0.302623 (1,2,4) -0.175021 (1,2,6) 6.893506E-02 (1,3,5) 0.741463
(1,2,6): (1,1,6) -0.337729 (1,2,5) -6.893506E-02 (1,2,7) -6.621193E-02 (1,3,6) 0.830556
(1,2,7): (1,1,7) -0.303645 (1,2,6) 6.621193E-02 (1,2,8) -0.169125 (1,3,7) 0.743366
(1,2,8): (1,1,8) -0.214886 (1,2,7) 0.169125 (1,2,9) -0.165805 (1,3,8) 0.493510
(1,2,9): (1,1,9) -0.131505 (1,2,8) 0.165805 (1,2,10) -9.434096E-02 (1,3,9) 0.280656
(1,2,10): (1,1,10) -8.588005E-02 (1,2,9) 9.434096E-02 (1,3,10) 0.172776
(1,3,1): (1,2,1) -7.019006E-02 (1,3,2) 0.118918 (1,4,1) 8.039357E-02
(1,3,2): (1,2,2) -0.128532 (1,3,1) -0.118918 (1,3,3) 0.260891 (1,4,2) 0.161216
(1,3,3): (1,2,3) -0.263357 (1,3,2) -0.260891 (1,3,4) 0.403923 (1,4,3) 0.375779
(1,3,4): (1,2,4) -0.487323 (1,3,3) -0.403923 (1,3,5) 0.428392 (1,4,4) 0.813781
(1,3,5): (1,2,5) -0.741463 (1,3,4) -0.428392 (1,3,6) 0.157454 (1,4,5) 1.44387
(1,3,6): (1,2,6) -0.830556 (1,3,5) -0.157454 (1,3,7) -0.152836 (1,4,6) 1.60524
(1,3,7): (1,2,7) -0.743366 (1,3,6) 0.152836 (1,3,8) -0.418197 (1,4,7) 1.44593
(1,3,8): (1,2,8) -0.493510 (1,3,7) 0.418197 (1,3,9) -0.378420 (1,4,8) 0.820451
(1,3,9): (1,2,9) -0.280656 (1,3,8) 0.378420 (1,3,10) -0.202138 (1,4,9) 0.394926
(1,3,10): (1,2,10) -0.172776 (1,3,9) 0.202138 (1,4,10) 0.213117
(1,4,1): (1,3,1) -8.039357E-02 (1,4,2) 0.199771 (1,5,1) 1.991455E-02
(1,4,2): (1,3,2) -0.161216 (1,4,1) -0.199771 (1,4,3) 0.475664 (1,5,2) 6.482761E-02
(1,4,3): (1,3,3) -0.375779 (1,4,2) -0.475664 (1,4,4) 0.842044 (1,5,3) 0.261206
(1,4,4): (1,3,4) -0.813781 (1,4,3) -0.842044 (1,4,5) 1.05620 (1,5,4) 0.944452
(1,4,5): (1,3,5) -1.44387 (1,4,4) -1.05620 (1,4,6) 0.316915 (1,5,5) 2.61988
(1,4,6): (1,3,6) -1.60524 (1,4,5) -0.316915 (1,4,7) -0.310256 (1,5,6) 2.70994
(1,4,7): (1,3,7) -1.44593 (1,4,6) 0.310256 (1,4,8) -1.04131 (1,5,7) 2.62040
(1,4,8): (1,3,8) -0.820451 (1,4,7) 1.04131 (1,4,9) -0.803877 (1,5,8) 0.945769
(1,4,9): (1,3,9) -0.394926 (1,4,8) 0.803877 (1,4,10) -0.383928 (1,5,9) 0.264963
(1,4,10): (1,3,10) -0.213117 (1,4,9) 0.383928 (1,5,10) 7.853830E-02
(1,5,1): (1,4,1) -1.991455E-02 (1,5,2) 0.244764 (1,6,1) -0.141888
(1,5,2): (1,4,2) -6.482761E-02 (1,5,1) -0.244764 (1,5,3) 0.672830 (1,6,2) -0.277923
(1,5,3): (1,4,3) -0.261206 (1,5,2) -0.672830 (1,5,4) 1.52906 (1,6,3) -0.497460
(1,5,4): (1,4,4) -0.944452 (1,5,3) -1.52906 (1,5,5) 2.73332 (1,6,4) -0.107757
(1,5,5): (1,4,5) -2.61988 (1,5,4) -2.73332 (1,5,6) 0.405313 (1,6,5) 5.21478
(1,5,6): (1,4,6) -2.70994 (1,5,5) -0.405313 (1,5,7) -0.398141 (1,6,6) 3.83967
(1,5,7): (1,4,7) -2.62040 (1,5,6) 0.398141 (1,5,8) -2.71738 (1,6,7) 5.21190
(1,5,8): (1,4,8) -0.945769 (1,5,7) 2.71738 (1,5,9) -1.48817 (1,6,8) -0.118170
(1,5,9): (1,4,9) -0.264963 (1,5,8) 1.48817 (1,5,10) -0.570908 (1,6,9) -0.530781
(1,5,10): (1,4,10) -7.853830E-02 (1,5,9) 0.570908 (1,6,10) -0.373432
(1,6,1): (1,5,1) 0.141888 (1,6,2) 0.108774 (1,7,1) -0.303067
(1,6,2): (1,5,2) 0.277923 (1,6,1) -0.108774 (1,6,3) 0.452920 (1,7,2) -0.746662
(1,6,3): (1,5,3) 0.497460 (1,6,2) -0.452920 (1,6,4) 1.92412 (1,7,3) -2.19985
(1,6,4): (1,5,4) 0.107757 (1,6,3) -1.92412 (1,6,5) 8.18667 (1,7,4) -6.61690
(1,6,5): (1,5,5) -5.21478 (1,6,4) -8.18667 (1,6,6) -0.923540 (1,7,5) -21.0694
(1,6,6): (1,5,6) -3.83967 (1,6,5) 0.923540 (1,6,7) 0.927975 (1,7,6) -33.2945
(1,6,7): (1,5,7) -5.21190 (1,6,6) -0.927975 (1,6,8) -8.17819 (1,7,7) -21.0750
(1,6,8): (1,5,8) 0.118170 (1,6,7) 8.17819 (1,6,9) -1.90624 (1,7,8) -6.63627
(1,6,9): (1,5,9) 0.530781 (1,6,8) 1.90624 (1,6,10) -0.413499 (1,7,9) -2.26527
(1,6,10): (1,5,10) 0.373432 (1,6,9) 0.413499 (1,7,10) -0.958325
(1,7,1): (1,6,1) 0.303067 (1,7,2) -0.333121 (1,8,1) -0.179254
(1,7,2): (1,6,2) 0.746662 (1,7,1) 0.333121 (1,7,3) -0.985079 (1,8,2) -0.461055
(1,7,3): (1,6,3) 2.19985 (1,7,2) 0.985079 (1,7,4) -2.35484 (1,8,3) -1.45353
(1,7,4): (1,6,4) 6.61690 (1,7,3) 2.35484 (1,7,5) -5.05478 (1,8,4) -4.72126
(1,7,5): (1,6,5) 21.0694 (1,7,4) 5.05478 (1,7,6) -11.0704 (1,8,5) -15.7365
(1,7,6): (1,6,6) 33.2945 (1,7,5) 11.0704 (1,7,7) 11.0701 (1,8,6) -55.8836
(1,7,7): (1,6,7) 21.0750 (1,7,6) -11.0701 (1,7,8) 5.04888 (1,8,7) -15.7396
(1,7,8): (1,6,8) 6.63627 (1,7,7) -5.04888 (1,7,9) 2.32591 (1,8,8) -4.73233
(1,7,9): (1,6,9) 2.26527 (1,7,8) -2.32591 (1,7,10) 0.877455 (1,8,9) -1.49127
(1,7,10): (1,6,10) 0.958325 (1,7,9) -0.877455 (1,8,10) -0.585952
(1,8,1): (1,7,1) 0.179254 (1,8,2) -0.615359 (1,9,1) 0.156534
(1,8,2): (1,7,2) 0.461055 (1,8,1) 0.615359 (1,8,3) -1.98289 (1,9,2) 0.433508
(1,8,3): (1,7,3) 1.45353 (1,8,2) 1.98289 (1,8,4) -5.65402 (1,9,3) 1.42097
(1,8,4): (1,7,4) 4.72126 (1,8,3) 5.65402 (1,8,5) -16.1131 (1,9,4) 4.68699
(1,8,5): (1,7,5) 15.7365 (1,8,4) 16.1131 (1,8,6) -48.4579 (1,9,5) 15.6865
(1,8,6): (1,7,6) 55.8836 (1,8,5) 48.4579 (1,8,7) 48.4526 (1,9,6) 55.8134
(1,8,7): (1,7,7) 15.7396 (1,8,6) -48.4526 (1,8,8) 16.0970 (1,9,7) 15.6884
(1,8,8): (1,7,8) 4.73233 (1,8,7) -16.0970 (1,8,9) 5.59588 (1,9,8) 4.69503
(1,8,9): (1,7,9) 1.49127 (1,8,8) -5.59588 (1,8,10) 1.78549 (1,9,9) 1.45228
(1,8,10): (1,7,10) 0.585952 (1,8,9) -1.78549 (1,9,10) 0.546890
(1,9,1): (1,8,1) -0.156534 (1,9,2) -0.337877 (1,10,1) 0.287754
(1,9,2): (1,8,2) -0.433508 (1,9,1) 0.337877 (1,9,3) -0.989795 (1,10,2) 0.727331
(1,9,3): (1,8,3) -1.42097 (1,9,2) 0.989795 (1,9,4) -2.35540 (1,10,3) 2.17418
(1,9,4): (1,8,4) -4.68699 (1,9,3) 2.35540 (1,9,5) -5.06480 (1,10,4) 6.57185
(1,9,5): (1,8,5) -15.6865 (1,9,4) 5.06480 (1,9,6) -11.0654 (1,10,5) 20.8476
(1,9,6): (1,8,6) -55.8134 (1,9,5) 11.0654 (1,9,7) 11.0639 (1,10,6) 33.0363
(1,9,7): (1,8,7) -15.6884 (1,9,6) -11.0639 (1,9,8) 5.05694 (1,10,7) 20.8522
(1,9,8): (1,8,8) -4.69503 (1,9,7) -5.05694 (1,9,9) 2.32295 (1,10,8) 6.58916
(1,9,9): (1,8,9) -1.45228 (1,9,8) -2.32295 (1,9,10) 0.877023 (1,10,9) 2.23525
(1,9,10): (1,8,10) -0.546890 (1,9,9) -0.877023 (1,10,10) 0.931026
(1,10,1): (1,9,1) -0.287754 (1,10,2) 0.100100 (1,11,1) 0.137240
(1,10,2): (1,9,2) -0.727331 (1,10,1) -0.100100 (1,10,3) 0.442261 (1,11,2) 0.270377
(1,10,3): (1,9,3) -2.17418 (1,10,2) -0.442261 (1,10,4) 1.90591 (1,11,3) 0.484725
(1,10,4): (1,9,4) -6.57185 (1,10,3) -1.90591 (1,10,5) 8.01932 (1,11,4) 0.101193
(1,10,5): (1,9,5) -20.8476 (1,10,4) -8.01932 (1,10,6) -0.933192 (1,11,5) -5.07647
(1,10,6): (1,9,6) -33.0363 (1,10,5) 0.933192 (1,10,7) 0.935787 (1,11,6) -3.69421
(1,10,7): (1,9,7) -20.8522 (1,10,6) -0.935787 (1,10,8) -8.01407 (1,11,7) -5.07377
(1,10,8): (1,9,8) -6.58916 (1,10,7) 8.01407 (1,10,9) -1.89387 (1,11,8) 0.111047
(1,10,9): (1,9,9) -2.23525 (1,10,8) 1.89387 (1,10,10) -0.411586 (1,11,9) 0.516763
(1,10,10): (1,9,10) -0.931026 (1,10,9) 0.411586 (1,11,10) 0.363081
(1,11,1): (1,10,1) -0.137240 (1,11,2) 0.233188 (1,12,1) -1.472917E-02
(1,11,2): (1,10,2) -0.270377 (1,11,1) -0.233188 (1,11,3) 0.656968 (1,12,2) -5.997120E-02
(1,11,3): (1,10,3) -0.484725 (1,11,2) -0.656968 (1,11,4) 1.51712 (1,12,3) -0.259001
(1,11,4): (1,10,4) -0.101193 (1,11,3) -1.51712 (1,11,5) 2.71516 (1,12,4) -0.947107
(1,11,5): (1,10,5) 5.07647 (1,11,4) -2.71516 (1,11,6) 0.404007 (1,12,5) -2.61501
(1,11,6): (1,10,6) 3.69421 (1,11,5) -0.404007 (1,11,7) -0.398829 (1,12,6) -2.70707
(1,11,7): (1,10,7) 5.07377 (1,11,6) 0.398829 (1,11,8) -2.70271 (1,12,7) -2.61521
(1,11,8): (1,10,8) -0.111047 (1,11,7) 2.70271 (1,11,9) -1.48277 (1,12,8) -0.947668
(1,11,9): (1,10,9) -0.516763 (1,11,8) 1.48277 (1,11,10) -0.565340 (1,12,9) -0.261249
(1,11,10): (1,10,10) -0.363081 (1,11,9) 0.565340 (1,12,10) -7.137235E-02
(1,12,1): (1,11,1) 1.472917E-02 (1,12,2) 0.187868 (1,13,1) -7.014763E-02
(1,12,2): (1,11,2) 5.997120E-02 (1,12,1) -0.187868 (1,12,3) 0.457165 (1,13,2) -0.148727
(1,12,3): (1,11,3) 0.259001 (1,12,2) -0.457165 (1,12,4) 0.825306 (1,13,3) -0.360963
(1,12,4): (1,11,4) 0.947107 (1,12,3) -0.825306 (1,12,5) 1.04577 (1,13,4) -0.799139
(1,12,5): (1,11,5) 2.61501 (1,12,4) -1.04577 (1,12,6) 0.313649 (1,13,5) -1.43086
(1,12,6): (1,11,6) 2.70707 (1,12,5) -0.313649 (1,12,7) -0.308674 (1,13,6) -1.59355
(1,12,7): (1,11,7) 2.61521 (1,12,6) 0.308674 (1,12,8) -1.03387 (1,13,7) -1.43241
(1,12,8): (1,11,8) 0.947668 (1,12,7) 1.03387 (1,12,9) -0.792886 (1,13,8) -0.804460
(1,12,9): (1,11,9) 0.261249 (1,12,8) 0.792886 (1,12,10) -0.374900 (1,13,9) -0.377217
(1,12,10): (1,11,10) 7.137235E-02 (1,12,9) 0.374900 (1,13,10) -0.195419
(1,13,1): (1,12,1) 7.014763E-02 (1,13,2) 0.109258 (1,14,1) -6.049848E-02
(1,13,2): (1,12,2) 0.148727 (1,13,1) -0.109258 (1,13,3) 0.244729 (1,14,2) -0.115862
(1,13,3): (1,12,3) 0.360963 (1,13,2) -0.244729 (1,13,4) 0.387020 (1,14,3) -0.246174
(1,13,4): (1,12,4) 0.799139 (1,13,3) -0.387020 (1,13,5) 0.416325 (1,14,4) -0.466310
(1,13,5): (1,12,5) 1.43086 (1,13,4) -0.416325 (1,13,6) 0.152874 (1,14,5) -0.718523
(1,13,6): (1,12,6) 1.59355 (1,13,5) -0.152874 (1,13,7) -0.149438 (1,14,6) -0.807023
(1,13,7): (1,12,7) 1.43241 (1,13,6) 0.149438 (1,13,8) -0.408257 (1,14,7) -0.719982
(1,13,8): (1,12,8) 0.804460 (1,13,7) 0.408257 (1,13,9) -0.365690 (1,14,8) -0.471277
(1,13,9): (1,12,9) 0.377217 (1,13,8) 0.365690 (1,13,10) -0.193106 (1,14,9) -0.260775
(1,13,10): (1,12,10) 0.195419 (1,13,9) 0.193106 (1,14,10) -0.154992
(1,14,1): (1,13,1) 6.049848E-02 (1,14,2) 5.389825E-02 (1,15,1) -3.068425E-02
(1,14,2): (1,13,2) 0.115862 (1,14,1) -5.389825E-02 (1,14,3) 0.114419 (1,15,2) -5.596518E-02
(1,14,3): (1,13,3) 0.246174 (1,14,2) -0.114419 (1,14,4) 0.167054 (1,15,3) -0.111832
(1,14,4): (1,13,4) 0.466310 (1,14,3) -0.167054 (1,14,5) 0.164850 (1,15,4) -0.197752
(1,14,5): (1,13,5) 0.718523 (1,14,4) -0.164850 (1,14,6) 6.492974E-02 (1,15,5) -0.286566
(1,14,6): (1,13,6) 0.807023 (1,14,5) -6.492974E-02 (1,14,7) -6.294686E-02 (1,15,6) -0.320835
(1,14,7): (1,13,7) 0.719982 (1,14,6) 6.294686E-02 (1,14,8) -0.160303 (1,15,7) -0.287345
(1,14,8): (1,13,8) 0.471277 (1,14,7) 0.160303 (1,14,9) -0.155405 (1,15,8) -0.200375
(1,14,9): (1,13,9) 0.260775 (1,14,8) 0.155405 (1,14,10) -8.739359E-02 (1,15,9) -0.119373
(1,14,10): (1,13,10) 0.154992 (1,14,9) 8.739359E-02 (1,15,10) -7.547435E-02
(1,15,1): (1,14,1) 3.068425E-02 (1,15,2) 2.861783E-02
(1,15,2): (1,14,2) 5.596518E-02 (1,15,1) -2.861783E-02 (1,15,3) 5.855096E-02
(1,15,3): (1,14,3) 0.111832 (1,15,2) -5.855096E-02 (1,15,4) 8.116030E-02
(1,15,4): (1,14,4) 0.197752 (1,15,3) -8.116030E-02 (1,15,5) 7.614151E-02
(1,15,5): (1,14,5) 0.286566 (1,15,4) -7.614151E-02 (1,15,6) 3.074730E-02
(1,15,6): (1,14,6) 0.320835 (1,15,5) -3.074730E-02 (1,15,7) -2.954218E-02
(1,15,7): (1,14,7) 0.287345 (1,15,6) 2.954218E-02 (1,15,8) -7.344144E-02
(1,15,8): (1,14,8) 0.200375 (1,15,7) 7.344144E-02 (1,15,9) -7.443900E-02
(1,15,9): (1,14,9) 0.119373 (1,15,8) 7.443900E-02 (1,15,10) -4.350870E-02
(1,15,10): (1,14,10) 7.547435E-02 (1,15,9) 4.350870E-02

 WEL PACKAGE (WEL-1) FLOW RATES   PERIOD      2   STEP       58
 ----------------------------------------------------------------------------------------
   NUMBER   CELLID                    RATE       NAME                                    
 ----------------------------------------------------------------------------------------
     1      (1,8,6)              -208.73330      WEL                                     
 ----------------------------------------------------------------------------------------




 DRN PACKAGE (DRN-0) FLOW RATES   PERIOD      2   STEP       58
 ----------------------------------------------------------------------------------------
   NUMBER   CELLID                    RATE       NAME                                    
 ----------------------------------------------------------------------------------------
     1      (1,1,1)               0.0000000      SURF                                    
     2      (1,1,2)               0.0000000      SURF                                    
     3      (1,1,3)               0.0000000      SURF                                    
     4      (1,1,4)               0.0000000      SURF                                    
     5      (1,1,5)               0.0000000      SURF                                    
     6      (1,1,6)               0.0000000      SURF                                    
     7      (1,1,7)               0.0000000      SURF                                    
     8      (1,1,8)               0.0000000      SURF                                    
     9      (1,1,9)               0.0000000      SURF                                    
     10     (1,1,10)              0.0000000      SURF                                    
     11     (1,2,1)               0.0000000      SURF                                    
     12     (1,2,2)               0.0000000      SURF                                    
     13     (1,2,3)               0.0000000      SURF                                    
     14     (1,2,4)               0.0000000      SURF                                    
     15     (1,2,5)               0.0000000      SURF                                    
     16     (1,2,6)               0.0000000      SURF                                    
     17     (1,2,7)               0.0000000      SURF                                    
     18     (1,2,8)               0.0000000      SURF                                    
     19     (1,2,9)               0.0000000      SURF                                    
     20     (1,2,10)              0.0000000      SURF                                    
     21     (1,3,1)               0.0000000      SURF                                    
     22     (1,3,2)               0.0000000      SURF                                    
     23     (1,3,3)               0.0000000      SURF                                    
     24     (1,3,4)               0.0000000      SURF                                    
     25     (1,3,5)               0.0000000      SURF                                    
     26     (1,3,6)               0.0000000      SURF                                    
     27     (1,3,7)               0.0000000      SURF                                    
     28     (1,3,8)               0.0000000      SURF                                    
     29     (1,3,9)               0.0000000      SURF                                    
     30     (1,3,10)              0.0000000      SURF                                    
     31     (1,4,1)               0.0000000      SURF                                    
     32     (1,4,2)               0.0000000      SURF                                    
     33     (1,4,3)               0.0000000      SURF                                    
     34     (1,4,4)               0.0000000      SURF                                    
     35     (1,4,5)               0.0000000      SURF                                    
     36     (1,4,6)               0.0000000      SURF                                    
     37     (1,4,7)               0.0000000      SURF                                    
     38     (1,4,8)               0.0000000      SURF                                    
     39     (1,4,9)               0.0000000      SURF                                    
     40     (1,4,10)              0.0000000      SURF                                    
     41     (1,5,1)               0.0000000      SURF                                    
     42     (1,5,2)               0.0000000      SURF                                    
     43     (1,5,3)               0.0000000      SURF                                    
     44     (1,5,4)               0.0000000      SURF                                    
     45     (1,5,5)               0.0000000      SURF                                    
     46     (1,5,6)               0.0000000      SURF                                    
     47     (1,5,7)               0.0000000      SURF                                    
     48     (1,5,8)               0.0000000      SURF                                    
     49     (1,5,9)               0.0000000      SURF                                    
     50     (1,5,10)              0.0000000      SURF                                    
     51     (1,6,1)               0.0000000      SURF                                    
     52     (1,6,2)               0.0000000      SURF                                    
     53     (1,6,3)               0.0000000      SURF                                    
     54     (1,6,4)               0.0000000      SURF                                    
     55     (1,6,5)               0.0000000      SURF                                    
     56     (1,6,6)               0.0000000      SURF                                    
     57     (1,6,7)              -3.37502570E-07 SURF                                    
     58     (1,6,8)               0.0000000      SURF                                    
     59     (1,6,9)               0.0000000      SURF                                    
     60     (1,6,10)              0.0000000      SURF                                    
     61     (1,7,1)               0.0000000      SURF                                    
     62     (1,7,2)               0.0000000      SURF                                    
     63     (1,7,3)               0.0000000      SURF                                    
     64     (1,7,4)               0.0000000      SURF                                    
     65     (1,7,5)               0.0000000      SURF                                    
     66     (1,7,6)               0.0000000      SURF                                    
     67     (1,7,7)               0.0000000      SURF                                    
     68     (1,7,8)               0.0000000      SURF                                    
     69     (1,7,9)               0.0000000      SURF                                    
     70     (1,7,10)              0.0000000      SURF                                    
     71     (1,8,1)               0.0000000      SURF                                    
     72     (1,8,2)               0.0000000      SURF                                    
     73     (1,8,3)               0.0000000      SURF                                    
     74     (1,8,4)               0.0000000      SURF                                    
     75     (1,8,5)               0.0000000      SURF                                    
     76     (1,8,6)               0.0000000      SURF                                    
     77     (1,8,7)               0.0000000      SURF                                    
     78     (1,8,8)               0.0000000      SURF                                    
     79     (1,8,9)               0.0000000      SURF                                    
     80     (1,8,10)              0.0000000      SURF                                    
     81     (1,9,1)               0.0000000      SURF                                    
     82     (1,9,2)               0.0000000      SURF                                    
     83     (1,9,3)               0.0000000      SURF                                    
     84     (1,9,4)               0.0000000      SURF                                    
     85     (1,9,5)               0.0000000      SURF                                    
     86     (1,9,6)               0.0000000      SURF                                    
     87     (1,9,7)               0.0000000      SURF                                    
     88     (1,9,8)               0.0000000      SURF                                    
     89     (1,9,9)               0.0000000      SURF                                    
     90     (1,9,10)              0.0000000      SURF                                    
     91     (1,10,1)              0.0000000      SURF                                    
     92     (1,10,2)              0.0000000      SURF                                    
     93     (1,10,3)              0.0000000      SURF                                    
     94     (1,10,4)              0.0000000      SURF                                    
     95     (1,10,5)              0.0000000      SURF                                    
     96     (1,10,6)              0.0000000      SURF                                    
     97     (1,10,7)              0.0000000      SURF                                    
     98     (1,10,8)              0.0000000      SURF                                    
     99     (1,10,9)              0.0000000      SURF                                    
    100     (1,10,10)             0.0000000      SURF                                    
    101     (1,11,1)              0.0000000      SURF                                    
    102     (1,11,2)              0.0000000      SURF                                    
    103     (1,11,3)              0.0000000      SURF                                    
    104     (1,11,4)              0.0000000      SURF                                    
    105     (1,11,5)              0.0000000      SURF                                    
    106     (1,11,6)              0.0000000      SURF                                    
    107     (1,11,7)              0.0000000      SURF                                    
    108     (1,11,8)              0.0000000      SURF                                    
    109     (1,11,9)              0.0000000      SURF                                    
    110     (1,11,10)             0.0000000      SURF                                    
    111     (1,12,1)              0.0000000      SURF                                    
    112     (1,12,2)              0.0000000      SURF                                    
    113     (1,12,3)              0.0000000      SURF                                    
    114     (1,12,4)              0.0000000      SURF                                    
    115     (1,12,5)              0.0000000      SURF                                    
    116     (1,12,6)              0.0000000      SURF                                    
    117     (1,12,7)              0.0000000      SURF                                    
    118     (1,12,8)              0.0000000      SURF                                    
    119     (1,12,9)              0.0000000      SURF                                    
    120     (1,12,10)             0.0000000      SURF                                    
    121     (1,13,1)              0.0000000      SURF                                    
    122     (1,13,2)              0.0000000      SURF                                    
    123     (1,13,3)              0.0000000      SURF                                    
    124     (1,13,4)              0.0000000      SURF                                    
    125     (1,13,5)              0.0000000      SURF                                    
    126     (1,13,6)              0.0000000      SURF                                    
    127     (1,13,7)              0.0000000      SURF                                    
    128     (1,13,8)              0.0000000      SURF                                    
    129     (1,13,9)              0.0000000      SURF                                    
    130     (1,13,10)             0.0000000      SURF                                    
    131     (1,14,1)              0.0000000      SURF                                    
    132     (1,14,2)              0.0000000      SURF                                    
    133     (1,14,3)              0.0000000      SURF                                    
    134     (1,14,4)              0.0000000      SURF                                    
    135     (1,14,5)              0.0000000      SURF                                    
    136     (1,14,6)              0.0000000      SURF                                    
    137     (1,14,7)              0.0000000      SURF                                    
    138     (1,14,8)              0.0000000      SURF                                    
    139     (1,14,9)              0.0000000      SURF                                    
    140     (1,14,10)             0.0000000      SURF                                    
    141     (1,15,1)              0.0000000      SURF                                    
    142     (1,15,2)              0.0000000      SURF                                    
    143     (1,15,3)              0.0000000      SURF                                    
    144     (1,15,4)              0.0000000      SURF                                    
    145     (1,15,5)              0.0000000      SURF                                    
    146     (1,15,6)              0.0000000      SURF                                    
    147     (1,15,7)              0.0000000      SURF                                    
    148     (1,15,8)              0.0000000      SURF                                    
    149     (1,15,9)              0.0000000      SURF                                    
    150     (1,15,10)             0.0000000      SURF                                    
 ----------------------------------------------------------------------------------------




 API PACKAGE (MAR) FLOW RATES   PERIOD      2   STEP       58
 -----------------------------------------------
   NUMBER   CELLID                    RATE      
 -----------------------------------------------
     1      (1,6,5)               35.393015     
     2      (1,6,6)               35.393015     
     3      (1,6,7)               35.393015     
     4      (1,10,5)              34.184751     
     5      (1,10,6)              34.184751     
     6      (1,10,7)              34.184751     
 -----------------------------------------------



1
  HEAD IN LAYER   1 AT END OF TIME STEP  58 IN STRESS PERIOD    2
  ---------------------------------------------------------------------------

            1           2           3           4           5           6           7           8           9          10
 ........................................................................................................................
   1   5.3890E-03  8.7245E-03  1.5418E-02  2.4498E-02  3.2880E-02  3.6260E-02  3.3050E-02  2.5028E-02  1.6802E-02  1.1937E-02
   2   9.0068E-03  1.5056E-02  2.7628E-02  4.5560E-02  6.2953E-02  6.9799E-02  6.3223E-02  4.6417E-02  2.9913E-02  2.0507E-02
   3   1.6015E-02  2.7873E-02  5.3823E-02  9.3840E-02  0.1361      0.1516      0.1366      9.5302E-02  5.7817E-02  3.7720E-02
   4   2.4035E-02  4.3924E-02  9.1062E-02  0.1738      0.2766      0.3074      0.2773      0.1759      9.6931E-02  5.8907E-02
   5   2.6021E-02  5.0375E-02  0.1169      0.2658      0.5255      0.5639      0.5262      0.2680      0.1231      6.6708E-02
   6   1.1869E-02  2.2722E-02  6.7709E-02  0.2553      0.9996      0.9156       1.000      0.2565      7.0672E-02  2.9613E-02
   7  -1.8402E-02 -5.1775E-02 -0.1508     -0.3899     -0.9159      -2.135     -0.9159     -0.3905     -0.1543     -6.5937E-02
   8  -3.6360E-02 -9.8121E-02 -0.2984     -0.8812      -2.648      -9.239      -2.649     -0.8830     -0.3057     -0.1249    
   9  -2.0674E-02 -5.4532E-02 -0.1541     -0.3933     -0.9205      -2.139     -0.9206     -0.3942     -0.1582     -6.9847E-02
  10   8.0778E-03  1.8070E-02  6.2023E-02  0.2480      0.9785      0.8935      0.9787      0.2487      6.3939E-02  2.3041E-02
  11   2.1772E-02  4.4986E-02  0.1100      0.2579      0.5161      0.5543      0.5165      0.2596      0.1150      5.9136E-02
  12   2.0302E-02  3.9016E-02  8.4350E-02  0.1655      0.2674      0.2978      0.2679      0.1672      8.9199E-02  5.2041E-02
  13   1.3302E-02  2.4201E-02  4.8556E-02  8.6924E-02  0.1280      0.1431      0.1284      8.8061E-02  5.1811E-02  3.2600E-02
  14   7.2599E-03  1.2643E-02  2.4057E-02  4.0695E-02  5.7086E-02  6.3538E-02  5.7283E-02  4.1345E-02  2.5868E-02  1.7151E-02
  15   4.1937E-03  7.0535E-03  1.2901E-02  2.1000E-02  2.8592E-02  3.1658E-02  2.8713E-02  2.1390E-02  1.3961E-02  9.6167E-03

 HEAD WILL BE SAVED ON UNIT 1100 AT END OF TIME STEP   58, STRESS PERIOD    2


  VOLUME BUDGET FOR ENTIRE MODEL AT END OF TIME STEP   58, STRESS PERIOD   2
  ---------------------------------------------------------------------------------------------------

     CUMULATIVE VOLUME      L**3       RATES FOR THIS TIME STEP      L**3/T          PACKAGE NAME    
     ------------------                 ------------------------                     ----------------

           IN:                                      IN:
           ---                                      ---
              STO-SS =          22.6049                STO-SS =       1.1432E-02     STORAGE                          
              STO-SY =       56585.1824                STO-SY =          24.1779     STORAGE                          
                 WEL =           0.0000                   WEL =           0.0000     WEL-1                            
                 DRN =           0.0000                   DRN =           0.0000     DRN-0                            
                 API =      118115.6066                   API =         208.7333     MAR                              
                 CHD =       2.0279E-08                   CHD =           0.0000     CHD_0                            

            TOTAL IN =      174723.3938              TOTAL IN =         232.9226

          OUT:                                     OUT:
          ----                                     ----
              STO-SS =          18.9782                STO-SS =       1.2244E-02     STORAGE                          
              STO-SY =       37020.0026                STO-SY =          24.1770     STORAGE                          
                 WEL =      137684.4129                   WEL =         208.7333     WEL-1                            
                 DRN =       1.9523E-04                   DRN =       3.3750E-07     DRN-0                            
                 API =           0.0000                   API =           0.0000     MAR                              
                 CHD =       2.0705E-08                   CHD =           0.0000     CHD_0                            

           TOTAL OUT =      174723.3938             TOTAL OUT =         232.9226

            IN - OUT =      -1.1961E-06              IN - OUT =       8.9034E-10

 PERCENT DISCREPANCY =          -0.00     PERCENT DISCREPANCY =           0.00




         TIME SUMMARY AT END OF TIME STEP   58 IN STRESS PERIOD    2
                    SECONDS     MINUTES      HOURS       DAYS        YEARS
                    -----------------------------------------------------------
   TIME STEP LENGTH 8.64000E+05  14400.      240.00      10.000     2.73785E-02
 STRESS PERIOD TIME 5.01120E+07 8.35200E+05  13920.      580.00      1.5880    
         TOTAL TIME 5.01984E+07 8.36640E+05  13944.      581.00      1.5907    


end timestep


start timestep kper="2" kstp="59" mode="normal"

 UBDSV1 SAVING           STO-SS ON UNIT   1099 AT TIME STEP     59, STRESS PERIOD      2
 UBDSV1 SAVING           STO-SY ON UNIT   1099 AT TIME STEP     59, STRESS PERIOD      2
 UBDSV1 SAVING     FLOW-JA-FACE ON UNIT   1099 AT TIME STEP     59, STRESS PERIOD      2
 UBDSV06 SAVING       DATA-SPDIS IN MODEL GWF              PACKAGE NPF             CONNECTED TO MODEL GWF              PACKAGE NPF              ON UNIT   1099 AT TIME STEP     59, STRESS PERIOD      2
 UBDSV06 SAVING              WEL IN MODEL GWF              PACKAGE GWF             CONNECTED TO MODEL GWF              PACKAGE WEL-1            ON UNIT   1099 AT TIME STEP     59, STRESS PERIOD      2
 UBDSV06 SAVING              DRN IN MODEL GWF              PACKAGE GWF             CONNECTED TO MODEL GWF              PACKAGE DRN-0            ON UNIT   1099 AT TIME STEP     59, STRESS PERIOD      2
 UBDSV06 SAVING              API IN MODEL GWF              PACKAGE GWF             CONNECTED TO MODEL GWF              PACKAGE MAR              ON UNIT   1099 AT TIME STEP     59, STRESS PERIOD      2
 UBDSV06 SAVING              CHD IN MODEL GWF              PACKAGE GWF             CONNECTED TO MODEL GWF              PACKAGE CHD_0            ON UNIT   1099 AT TIME STEP     59, STRESS PERIOD      2

    CALCULATED INTERCELL FLOW FOR PERIOD 2 STEP 59
(1,1,1): (1,1,2) 3.476597E-02 (1,2,1) 3.744207E-02
(1,1,2): (1,1,1) -3.476597E-02 (1,1,3) 6.951708E-02 (1,2,2) 6.504990E-02
(1,1,3): (1,1,2) -6.951708E-02 (1,1,4) 9.394221E-02 (1,2,3) 0.124799
(1,1,4): (1,1,3) -9.394221E-02 (1,1,5) 8.649377E-02 (1,2,4) 0.214791
(1,1,5): (1,1,4) -8.649377E-02 (1,1,6) 3.488444E-02 (1,2,5) 0.306541
(1,1,6): (1,1,5) -3.488444E-02 (1,1,7) -3.302524E-02 (1,2,6) 0.341938
(1,1,7): (1,1,6) 3.302524E-02 (1,1,8) -8.260178E-02 (1,2,7) 0.307621
(1,1,8): (1,1,7) 8.260178E-02 (1,1,9) -8.484001E-02 (1,2,8) 0.218249
(1,1,9): (1,1,8) 8.484001E-02 (1,1,10) -5.025705E-02 (1,2,9) 0.134206
(1,1,10): (1,1,9) 5.025705E-02 (1,2,10) 8.816253E-02
(1,2,1): (1,1,1) -3.744207E-02 (1,2,2) 6.237306E-02 (1,3,1) 7.186094E-02
(1,2,2): (1,1,2) -6.504990E-02 (1,2,1) -6.237306E-02 (1,2,3) 0.129269 (1,3,2) 0.130643
(1,2,3): (1,1,3) -0.124799 (1,2,2) -0.129269 (1,2,4) 0.183907 (1,3,3) 0.266250
(1,2,4): (1,1,4) -0.214791 (1,2,3) -0.183907 (1,2,5) 0.178128 (1,3,4) 0.491207
(1,2,5): (1,1,5) -0.306541 (1,2,4) -0.178128 (1,2,6) 7.018692E-02 (1,3,5) 0.746316
(1,2,6): (1,1,6) -0.341938 (1,2,5) -7.018692E-02 (1,2,7) -6.724958E-02 (1,3,6) 0.835837
(1,2,7): (1,1,7) -0.307621 (1,2,6) 6.724958E-02 (1,2,8) -0.171854 (1,3,7) 0.748306
(1,2,8): (1,1,8) -0.218249 (1,2,7) 0.171854 (1,2,9) -0.168842 (1,3,8) 0.497620
(1,2,9): (1,1,9) -0.134206 (1,2,8) 0.168842 (1,2,10) -9.628305E-02 (1,3,9) 0.284017
(1,2,10): (1,1,10) -8.816253E-02 (1,2,9) 9.628305E-02 (1,3,10) 0.175717
(1,3,1): (1,2,1) -7.186094E-02 (1,3,2) 0.121150 (1,4,1) 8.079053E-02
(1,3,2): (1,2,2) -0.130643 (1,3,1) -0.121150 (1,3,3) 0.264874 (1,4,2) 0.161320
(1,3,3): (1,2,3) -0.266250 (1,3,2) -0.264874 (1,3,4) 0.408682 (1,4,3) 0.375447
(1,3,4): (1,2,4) -0.491207 (1,3,3) -0.408682 (1,3,5) 0.432464 (1,4,4) 0.813390
(1,3,5): (1,2,5) -0.746316 (1,3,4) -0.432464 (1,3,6) 0.159129 (1,4,5) 1.44420
(1,3,6): (1,2,6) -0.835837 (1,3,5) -0.159129 (1,3,7) -0.154210 (1,4,6) 1.60604
(1,3,7): (1,2,7) -0.748306 (1,3,6) 0.154210 (1,3,8) -0.421750 (1,4,7) 1.44631
(1,3,8): (1,2,8) -0.497620 (1,3,7) 0.421750 (1,3,9) -0.382205 (1,4,8) 0.820163
(1,3,9): (1,2,9) -0.284017 (1,3,8) 0.382205 (1,3,10) -0.204498 (1,4,9) 0.394726
(1,3,10): (1,2,10) -0.175717 (1,3,9) 0.204498 (1,4,10) 0.213267
(1,4,1): (1,3,1) -8.079053E-02 (1,4,2) 0.201712 (1,5,1) 1.697170E-02
(1,4,2): (1,3,2) -0.161320 (1,4,1) -0.201712 (1,4,3) 0.479218 (1,5,2) 6.000936E-02
(1,4,3): (1,3,3) -0.375447 (1,4,2) -0.479218 (1,4,4) 0.846765 (1,5,3) 0.253425
(1,4,4): (1,3,4) -0.813390 (1,4,3) -0.846765 (1,4,5) 1.06102 (1,5,4) 0.934758
(1,4,5): (1,3,5) -1.44420 (1,4,4) -1.06102 (1,4,6) 0.319054 (1,5,5) 2.61141
(1,4,6): (1,3,6) -1.60604 (1,4,5) -0.319054 (1,4,7) -0.312043 (1,5,6) 2.70249
(1,4,7): (1,3,7) -1.44631 (1,4,6) 0.312043 (1,4,8) -1.04555 (1,5,7) 2.61185
(1,4,8): (1,3,8) -0.820163 (1,4,7) 1.04555 (1,4,9) -0.807591 (1,5,8) 0.935818
(1,4,9): (1,3,9) -0.394726 (1,4,8) 0.807591 (1,4,10) -0.385942 (1,5,9) 0.256422
(1,4,10): (1,3,10) -0.213267 (1,4,9) 0.385942 (1,5,10) 7.184111E-02
(1,5,1): (1,4,1) -1.697170E-02 (1,5,2) 0.244828 (1,6,1) -0.148710
(1,5,2): (1,4,2) -6.000936E-02 (1,5,1) -0.244828 (1,5,3) 0.673426 (1,6,2) -0.288370
(1,5,3): (1,4,3) -0.253425 (1,5,2) -0.673426 (1,5,4) 1.53194 (1,6,3) -0.513697
(1,5,4): (1,4,4) -0.934758 (1,5,3) -1.53194 (1,5,5) 2.73958 (1,6,4) -0.127511
(1,5,5): (1,4,5) -2.61141 (1,5,4) -2.73958 (1,5,6) 0.408463 (1,6,5) 5.20053
(1,5,6): (1,4,6) -2.70249 (1,5,5) -0.408463 (1,5,7) -0.401008 (1,6,6) 3.82847
(1,5,7): (1,4,7) -2.61185 (1,5,6) 0.401008 (1,5,8) -2.72325 (1,6,7) 5.19742
(1,5,8): (1,4,8) -0.935818 (1,5,7) 2.72325 (1,5,9) -1.49054 (1,6,8) -0.138603
(1,5,9): (1,4,9) -0.256422 (1,5,8) 1.49054 (1,5,10) -0.571088 (1,6,9) -0.548801
(1,5,10): (1,4,10) -7.184111E-02 (1,5,9) 0.571088 (1,6,10) -0.387933
(1,6,1): (1,5,1) 0.148710 (1,6,2) 0.105228 (1,7,1) -0.310843
(1,6,2): (1,5,2) 0.288370 (1,6,1) -0.105228 (1,6,3) 0.447750 (1,7,2) -0.758459
(1,6,3): (1,5,3) 0.513697 (1,6,2) -0.447750 (1,6,4) 1.92337 (1,7,3) -2.21864
(1,6,4): (1,5,4) 0.127511 (1,6,3) -1.92337 (1,6,5) 8.19977 (1,7,4) -6.64341
(1,6,5): (1,5,5) -5.20053 (1,6,4) -8.19977 (1,6,6) -0.917554 (1,7,5) -21.1049
(1,6,6): (1,5,6) -3.82847 (1,6,5) 0.917554 (1,6,7) 0.922056 (1,7,6) -33.3250
(1,6,7): (1,5,7) -5.19742 (1,6,6) -0.922056 (1,6,8) -8.19137 (1,7,7) -21.1107
(1,6,8): (1,5,8) 0.138603 (1,6,7) 8.19137 (1,6,9) -1.90610 (1,7,8) -6.66357
(1,6,9): (1,5,9) 0.548801 (1,6,8) 1.90610 (1,6,10) -0.410186 (1,7,9) -2.28608
(1,6,10): (1,5,10) 0.387933 (1,6,9) 0.410186 (1,7,10) -0.974621
(1,7,1): (1,6,1) 0.310843 (1,7,2) -0.340645 (1,8,1) -0.182689
(1,7,2): (1,6,2) 0.758459 (1,7,1) 0.340645 (1,7,3) -0.997018 (1,8,2) -0.466135
(1,7,3): (1,6,3) 2.21864 (1,7,2) 0.997018 (1,7,4) -2.36218 (1,8,3) -1.46131
(1,7,4): (1,6,4) 6.64341 (1,7,3) 2.36218 (1,7,5) -5.04672 (1,8,4) -4.73077
(1,7,5): (1,6,5) 21.1049 (1,7,4) 5.04672 (1,7,6) -11.0562 (1,8,5) -15.7415
(1,7,6): (1,6,6) 33.3250 (1,7,5) 11.0562 (1,7,7) 11.0557 (1,8,6) -55.8569
(1,7,7): (1,6,7) 21.1107 (1,7,6) -11.0557 (1,7,8) 5.04019 (1,8,7) -15.7447
(1,7,8): (1,6,8) 6.66357 (1,7,7) -5.04019 (1,7,9) 2.33139 (1,8,8) -4.74219
(1,7,9): (1,6,9) 2.28608 (1,7,8) -2.33139 (1,7,10) 0.885019 (1,8,9) -1.49993
(1,7,10): (1,6,10) 0.974621 (1,7,9) -0.885019 (1,8,10) -0.592949
(1,8,1): (1,7,1) 0.182689 (1,8,2) -0.624543 (1,9,1) 0.160107
(1,8,2): (1,7,2) 0.466135 (1,8,1) 0.624543 (1,8,3) -1.99761 (1,9,2) 0.438977
(1,8,3): (1,7,3) 1.46131 (1,8,2) 1.99761 (1,8,4) -5.66312 (1,9,3) 1.42917
(1,8,4): (1,7,4) 4.73077 (1,8,3) 5.66312 (1,8,5) -16.0983 (1,9,4) 4.69502
(1,8,5): (1,7,5) 15.7415 (1,8,4) 16.0983 (1,8,6) -48.4010 (1,9,5) 15.6820
(1,8,6): (1,7,6) 55.8569 (1,8,5) 48.4010 (1,8,7) 48.3954 (1,9,6) 55.7699
(1,8,7): (1,7,7) 15.7447 (1,8,6) -48.3954 (1,8,8) 16.0811 (1,9,7) 15.6839
(1,8,8): (1,7,8) 4.74219 (1,8,7) -16.0811 (1,8,9) 5.60248 (1,9,8) 4.70338
(1,8,9): (1,7,9) 1.49993 (1,8,8) -5.60248 (1,8,10) 1.79473 (1,9,9) 1.46139
(1,8,10): (1,7,10) 0.592949 (1,8,9) -1.79473 (1,9,10) 0.554473
(1,9,1): (1,8,1) -0.160107 (1,9,2) -0.345152 (1,10,1) 0.295500
(1,9,2): (1,8,2) -0.438977 (1,9,1) 0.345152 (1,9,3) -1.00170 (1,10,2) 0.739187
(1,9,3): (1,8,3) -1.42917 (1,9,2) 1.00170 (1,9,4) -2.36460 (1,10,3) 2.19256
(1,9,4): (1,8,4) -4.69502 (1,9,3) 2.36460 (1,9,5) -5.06376 (1,10,4) 6.59292
(1,9,5): (1,8,5) -15.6820 (1,9,4) 5.06376 (1,9,6) -11.0523 (1,10,5) 20.8469
(1,9,6): (1,8,6) -55.7699 (1,9,5) 11.0523 (1,9,7) 11.0506 (1,10,6) 33.0222
(1,9,7): (1,8,7) -15.6839 (1,9,6) -11.0506 (1,9,8) 5.05527 (1,10,7) 20.8518
(1,9,8): (1,8,8) -4.70338 (1,9,7) -5.05527 (1,9,9) 2.33034 (1,10,8) 6.61098
(1,9,9): (1,8,9) -1.46139 (1,9,8) -2.33034 (1,9,10) 0.884726 (1,10,9) 2.25564
(1,9,10): (1,8,10) -0.554473 (1,9,9) -0.884726 (1,10,10) 0.947447
(1,10,1): (1,9,1) -0.295500 (1,10,2) 9.689375E-02 (1,11,1) 0.143882
(1,10,2): (1,9,2) -0.739187 (1,10,1) -9.689375E-02 (1,10,3) 0.436664 (1,11,2) 0.280764
(1,10,3): (1,9,3) -2.19256 (1,10,2) -0.436664 (1,10,4) 1.89851 (1,11,3) 0.501750
(1,10,4): (1,9,4) -6.59292 (1,10,3) -1.89851 (1,10,5) 7.99772 (1,11,4) 0.126851
(1,10,5): (1,9,5) -20.8469 (1,10,4) -7.99772 (1,10,6) -0.932586 (1,11,5) -5.02906
(1,10,6): (1,9,6) -33.0222 (1,10,5) 0.932586 (1,10,7) 0.935211 (1,11,6) -3.64632
(1,10,7): (1,9,7) -20.8518 (1,10,6) -0.935211 (1,10,8) -7.99258 (1,11,7) -5.02615
(1,10,8): (1,9,8) -6.61098 (1,10,7) 7.99258 (1,10,9) -1.88701 (1,11,8) 0.137350
(1,10,9): (1,9,9) -2.25564 (1,10,8) 1.88701 (1,10,10) -0.407599 (1,11,9) 0.535513
(1,10,10): (1,9,10) -0.947447 (1,10,9) 0.407599 (1,11,10) 0.377455
(1,11,1): (1,10,1) -0.143882 (1,11,2) 0.233712 (1,12,1) -1.203917E-02
(1,11,2): (1,10,2) -0.280764 (1,11,1) -0.233712 (1,11,3) 0.657985 (1,12,2) -5.548474E-02
(1,11,3): (1,10,3) -0.501750 (1,11,2) -0.657985 (1,11,4) 1.51855 (1,12,3) -0.251350
(1,11,4): (1,10,4) -0.126851 (1,11,3) -1.51855 (1,11,5) 2.71467 (1,12,4) -0.935757
(1,11,5): (1,10,5) 5.02906 (1,11,4) -2.71467 (1,11,6) 0.405567 (1,12,5) -2.59874
(1,11,6): (1,10,6) 3.64632 (1,11,5) -0.405567 (1,11,7) -0.400159 (1,12,6) -2.69036
(1,11,7): (1,10,7) 5.02615 (1,11,6) 0.400159 (1,11,8) -2.70186 (1,12,7) -2.59887
(1,11,8): (1,10,8) -0.137350 (1,11,7) 2.70186 (1,11,9) -1.48366 (1,12,8) -0.936083
(1,11,9): (1,10,9) -0.535513 (1,11,8) 1.48366 (1,11,10) -0.565703 (1,12,9) -0.252911
(1,11,10): (1,10,10) -0.377455 (1,11,9) 0.565703 (1,12,10) -6.517274E-02
(1,12,1): (1,11,1) 1.203917E-02 (1,12,2) 0.190190 (1,13,1) -7.071901E-02
(1,12,2): (1,11,2) 5.548474E-02 (1,12,1) -0.190190 (1,12,3) 0.461342 (1,13,2) -0.149192
(1,12,3): (1,11,3) 0.251350 (1,12,2) -0.461342 (1,12,4) 0.830376 (1,13,3) -0.361228
(1,12,4): (1,11,4) 0.935757 (1,12,3) -0.830376 (1,12,5) 1.04997 (1,13,4) -0.799246
(1,12,5): (1,11,5) 2.59874 (1,12,4) -1.04997 (1,12,6) 0.315629 (1,13,5) -1.43081
(1,12,6): (1,11,6) 2.69036 (1,12,5) -0.315629 (1,12,7) -0.310360 (1,13,6) -1.59370
(1,12,7): (1,11,7) 2.59887 (1,12,6) 0.310360 (1,12,8) -1.03754 (1,13,7) -1.43240
(1,12,8): (1,11,8) 0.936083 (1,12,7) 1.03754 (1,12,9) -0.796953 (1,13,8) -0.804672
(1,12,9): (1,11,9) 0.252911 (1,12,8) 0.796953 (1,12,10) -0.377392 (1,13,9) -0.377657
(1,12,10): (1,11,10) 6.517274E-02 (1,12,9) 0.377392 (1,13,10) -0.196085
(1,13,1): (1,12,1) 7.071901E-02 (1,13,2) 0.111684 (1,14,1) -6.221111E-02
(1,13,2): (1,12,2) 0.149192 (1,13,1) -0.111684 (1,13,3) 0.249098 (1,14,2) -0.118172
(1,13,3): (1,12,3) 0.361228 (1,13,2) -0.249098 (1,13,4) 0.392227 (1,14,3) -0.249540
(1,13,4): (1,12,4) 0.799246 (1,13,3) -0.392227 (1,13,5) 0.420660 (1,14,4) -0.470932
(1,13,5): (1,12,5) 1.43081 (1,13,4) -0.420660 (1,13,6) 0.154650 (1,14,5) -0.724210
(1,13,6): (1,12,6) 1.59370 (1,13,5) -0.154650 (1,13,7) -0.150964 (1,14,6) -0.813178
(1,13,7): (1,12,7) 1.43240 (1,13,6) 0.150964 (1,13,8) -0.412132 (1,14,7) -0.725747
(1,13,8): (1,12,8) 0.804672 (1,13,7) 0.412132 (1,13,9) -0.369970 (1,14,8) -0.476111
(1,13,9): (1,12,9) 0.377657 (1,13,8) 0.369970 (1,13,10) -0.195821 (1,14,9) -0.264613
(1,13,10): (1,12,10) 0.196085 (1,13,9) 0.195821 (1,14,10) -0.158211
(1,14,1): (1,13,1) 6.221111E-02 (1,14,2) 5.572672E-02 (1,15,1) -3.189519E-02
(1,14,2): (1,13,2) 0.118172 (1,14,1) -5.572672E-02 (1,14,3) 0.117731 (1,15,2) -5.766099E-02
(1,14,3): (1,13,3) 0.249540 (1,14,2) -0.117731 (1,14,4) 0.171006 (1,15,3) -0.114394
(1,14,4): (1,13,4) 0.470932 (1,14,3) -0.171006 (1,14,5) 0.168125 (1,15,4) -0.201336
(1,14,5): (1,13,5) 0.724210 (1,14,4) -0.168125 (1,14,6) 6.624426E-02 (1,15,5) -0.290996
(1,14,6): (1,13,6) 0.813178 (1,14,5) -6.624426E-02 (1,14,7) -6.408886E-02 (1,15,6) -0.325607
(1,14,7): (1,13,7) 0.725747 (1,14,6) 6.408886E-02 (1,14,8) -0.163254 (1,15,7) -0.291826
(1,14,8): (1,13,8) 0.476111 (1,14,7) 0.163254 (1,14,9) -0.158690 (1,15,8) -0.204103
(1,14,9): (1,13,9) 0.264613 (1,14,8) 0.158690 (1,14,10) -8.949118E-02 (1,15,9) -0.122265
(1,14,10): (1,13,10) 0.158211 (1,14,9) 8.949118E-02 (1,15,10) -7.783205E-02
(1,15,1): (1,14,1) 3.189519E-02 (1,15,2) 2.996141E-02
(1,15,2): (1,14,2) 5.766099E-02 (1,15,1) -2.996141E-02 (1,15,3) 6.099662E-02
(1,15,3): (1,14,3) 0.114394 (1,15,2) -6.099662E-02 (1,15,4) 8.408977E-02
(1,15,4): (1,14,4) 0.201336 (1,15,3) -8.408977E-02 (1,15,5) 7.857303E-02
(1,15,5): (1,14,5) 0.290996 (1,15,4) -7.857303E-02 (1,15,6) 3.172139E-02
(1,15,6): (1,14,6) 0.325607 (1,15,5) -3.172139E-02 (1,15,7) -3.039411E-02
(1,15,7): (1,14,7) 0.291826 (1,15,6) 3.039411E-02 (1,15,8) -7.564203E-02
(1,15,8): (1,14,8) 0.204103 (1,15,7) 7.564203E-02 (1,15,9) -7.688942E-02
(1,15,9): (1,14,9) 0.122265 (1,15,8) 7.688942E-02 (1,15,10) -4.507244E-02
(1,15,10): (1,14,10) 7.783205E-02 (1,15,9) 4.507244E-02

 WEL PACKAGE (WEL-1) FLOW RATES   PERIOD      2   STEP       59
 ----------------------------------------------------------------------------------------
   NUMBER   CELLID                    RATE       NAME                                    
 ----------------------------------------------------------------------------------------
     1      (1,8,6)              -208.54381      WEL                                     
 ----------------------------------------------------------------------------------------




 DRN PACKAGE (DRN-0) FLOW RATES   PERIOD      2   STEP       59
 ----------------------------------------------------------------------------------------
   NUMBER   CELLID                    RATE       NAME                                    
 ----------------------------------------------------------------------------------------
     1      (1,1,1)               0.0000000      SURF                                    
     2      (1,1,2)               0.0000000      SURF                                    
     3      (1,1,3)               0.0000000      SURF                                    
     4      (1,1,4)               0.0000000      SURF                                    
     5      (1,1,5)               0.0000000      SURF                                    
     6      (1,1,6)               0.0000000      SURF                                    
     7      (1,1,7)               0.0000000      SURF                                    
     8      (1,1,8)               0.0000000      SURF                                    
     9      (1,1,9)               0.0000000      SURF                                    
     10     (1,1,10)              0.0000000      SURF                                    
     11     (1,2,1)               0.0000000      SURF                                    
     12     (1,2,2)               0.0000000      SURF                                    
     13     (1,2,3)               0.0000000      SURF                                    
     14     (1,2,4)               0.0000000      SURF                                    
     15     (1,2,5)               0.0000000      SURF                                    
     16     (1,2,6)               0.0000000      SURF                                    
     17     (1,2,7)               0.0000000      SURF                                    
     18     (1,2,8)               0.0000000      SURF                                    
     19     (1,2,9)               0.0000000      SURF                                    
     20     (1,2,10)              0.0000000      SURF                                    
     21     (1,3,1)               0.0000000      SURF                                    
     22     (1,3,2)               0.0000000      SURF                                    
     23     (1,3,3)               0.0000000      SURF                                    
     24     (1,3,4)               0.0000000      SURF                                    
     25     (1,3,5)               0.0000000      SURF                                    
     26     (1,3,6)               0.0000000      SURF                                    
     27     (1,3,7)               0.0000000      SURF                                    
     28     (1,3,8)               0.0000000      SURF                                    
     29     (1,3,9)               0.0000000      SURF                                    
     30     (1,3,10)              0.0000000      SURF                                    
     31     (1,4,1)               0.0000000      SURF                                    
     32     (1,4,2)               0.0000000      SURF                                    
     33     (1,4,3)               0.0000000      SURF                                    
     34     (1,4,4)               0.0000000      SURF                                    
     35     (1,4,5)               0.0000000      SURF                                    
     36     (1,4,6)               0.0000000      SURF                                    
     37     (1,4,7)               0.0000000      SURF                                    
     38     (1,4,8)               0.0000000      SURF                                    
     39     (1,4,9)               0.0000000      SURF                                    
     40     (1,4,10)              0.0000000      SURF                                    
     41     (1,5,1)               0.0000000      SURF                                    
     42     (1,5,2)               0.0000000      SURF                                    
     43     (1,5,3)               0.0000000      SURF                                    
     44     (1,5,4)               0.0000000      SURF                                    
     45     (1,5,5)               0.0000000      SURF                                    
     46     (1,5,6)               0.0000000      SURF                                    
     47     (1,5,7)               0.0000000      SURF                                    
     48     (1,5,8)               0.0000000      SURF                                    
     49     (1,5,9)               0.0000000      SURF                                    
     50     (1,5,10)              0.0000000      SURF                                    
     51     (1,6,1)               0.0000000      SURF                                    
     52     (1,6,2)               0.0000000      SURF                                    
     53     (1,6,3)               0.0000000      SURF                                    
     54     (1,6,4)               0.0000000      SURF                                    
     55     (1,6,5)               0.0000000      SURF                                    
     56     (1,6,6)               0.0000000      SURF                                    
     57     (1,6,7)              -3.36091034E-07 SURF                                    
     58     (1,6,8)               0.0000000      SURF                                    
     59     (1,6,9)               0.0000000      SURF                                    
     60     (1,6,10)              0.0000000      SURF                                    
     61     (1,7,1)               0.0000000      SURF                                    
     62     (1,7,2)               0.0000000      SURF                                    
     63     (1,7,3)               0.0000000      SURF                                    
     64     (1,7,4)               0.0000000      SURF                                    
     65     (1,7,5)               0.0000000      SURF                                    
     66     (1,7,6)               0.0000000      SURF                                    
     67     (1,7,7)               0.0000000      SURF                                    
     68     (1,7,8)               0.0000000      SURF                                    
     69     (1,7,9)               0.0000000      SURF                                    
     70     (1,7,10)              0.0000000      SURF                                    
     71     (1,8,1)               0.0000000      SURF                                    
     72     (1,8,2)               0.0000000      SURF                                    
     73     (1,8,3)               0.0000000      SURF                                    
     74     (1,8,4)               0.0000000      SURF                                    
     75     (1,8,5)               0.0000000      SURF                                    
     76     (1,8,6)               0.0000000      SURF                                    
     77     (1,8,7)               0.0000000      SURF                                    
     78     (1,8,8)               0.0000000      SURF                                    
     79     (1,8,9)               0.0000000      SURF                                    
     80     (1,8,10)              0.0000000      SURF                                    
     81     (1,9,1)               0.0000000      SURF                                    
     82     (1,9,2)               0.0000000      SURF                                    
     83     (1,9,3)               0.0000000      SURF                                    
     84     (1,9,4)               0.0000000      SURF                                    
     85     (1,9,5)               0.0000000      SURF                                    
     86     (1,9,6)               0.0000000      SURF                                    
     87     (1,9,7)               0.0000000      SURF                                    
     88     (1,9,8)               0.0000000      SURF                                    
     89     (1,9,9)               0.0000000      SURF                                    
     90     (1,9,10)              0.0000000      SURF                                    
     91     (1,10,1)              0.0000000      SURF                                    
     92     (1,10,2)              0.0000000      SURF                                    
     93     (1,10,3)              0.0000000      SURF                                    
     94     (1,10,4)              0.0000000      SURF                                    
     95     (1,10,5)              0.0000000      SURF                                    
     96     (1,10,6)              0.0000000      SURF                                    
     97     (1,10,7)              0.0000000      SURF                                    
     98     (1,10,8)              0.0000000      SURF                                    
     99     (1,10,9)              0.0000000      SURF                                    
    100     (1,10,10)             0.0000000      SURF                                    
    101     (1,11,1)              0.0000000      SURF                                    
    102     (1,11,2)              0.0000000      SURF                                    
    103     (1,11,3)              0.0000000      SURF                                    
    104     (1,11,4)              0.0000000      SURF                                    
    105     (1,11,5)              0.0000000      SURF                                    
    106     (1,11,6)              0.0000000      SURF                                    
    107     (1,11,7)              0.0000000      SURF                                    
    108     (1,11,8)              0.0000000      SURF                                    
    109     (1,11,9)              0.0000000      SURF                                    
    110     (1,11,10)             0.0000000      SURF                                    
    111     (1,12,1)              0.0000000      SURF                                    
    112     (1,12,2)              0.0000000      SURF                                    
    113     (1,12,3)              0.0000000      SURF                                    
    114     (1,12,4)              0.0000000      SURF                                    
    115     (1,12,5)              0.0000000      SURF                                    
    116     (1,12,6)              0.0000000      SURF                                    
    117     (1,12,7)              0.0000000      SURF                                    
    118     (1,12,8)              0.0000000      SURF                                    
    119     (1,12,9)              0.0000000      SURF                                    
    120     (1,12,10)             0.0000000      SURF                                    
    121     (1,13,1)              0.0000000      SURF                                    
    122     (1,13,2)              0.0000000      SURF                                    
    123     (1,13,3)              0.0000000      SURF                                    
    124     (1,13,4)              0.0000000      SURF                                    
    125     (1,13,5)              0.0000000      SURF                                    
    126     (1,13,6)              0.0000000      SURF                                    
    127     (1,13,7)              0.0000000      SURF                                    
    128     (1,13,8)              0.0000000      SURF                                    
    129     (1,13,9)              0.0000000      SURF                                    
    130     (1,13,10)             0.0000000      SURF                                    
    131     (1,14,1)              0.0000000      SURF                                    
    132     (1,14,2)              0.0000000      SURF                                    
    133     (1,14,3)              0.0000000      SURF                                    
    134     (1,14,4)              0.0000000      SURF                                    
    135     (1,14,5)              0.0000000      SURF                                    
    136     (1,14,6)              0.0000000      SURF                                    
    137     (1,14,7)              0.0000000      SURF                                    
    138     (1,14,8)              0.0000000      SURF                                    
    139     (1,14,9)              0.0000000      SURF                                    
    140     (1,14,10)             0.0000000      SURF                                    
    141     (1,15,1)              0.0000000      SURF                                    
    142     (1,15,2)              0.0000000      SURF                                    
    143     (1,15,3)              0.0000000      SURF                                    
    144     (1,15,4)              0.0000000      SURF                                    
    145     (1,15,5)              0.0000000      SURF                                    
    146     (1,15,6)              0.0000000      SURF                                    
    147     (1,15,7)              0.0000000      SURF                                    
    148     (1,15,8)              0.0000000      SURF                                    
    149     (1,15,9)              0.0000000      SURF                                    
    150     (1,15,10)             0.0000000      SURF                                    
 ----------------------------------------------------------------------------------------




 API PACKAGE (MAR) FLOW RATES   PERIOD      2   STEP       59
 -----------------------------------------------
   NUMBER   CELLID                    RATE      
 -----------------------------------------------
     1      (1,6,5)               35.421505     
     2      (1,6,6)               35.421505     
     3      (1,6,7)               35.421505     
     4      (1,10,5)              34.093098     
     5      (1,10,6)              34.093098     
     6      (1,10,7)              34.093098     
 -----------------------------------------------



1
  HEAD IN LAYER   1 AT END OF TIME STEP  59 IN STRESS PERIOD    2
  ---------------------------------------------------------------------------

            1           2           3           4           5           6           7           8           9          10
 ........................................................................................................................
   1   5.7499E-03  9.2233E-03  1.6164E-02  2.5534E-02  3.4154E-02  3.7629E-02  3.4339E-02  2.6107E-02  1.7645E-02  1.2629E-02
   2   9.4905E-03  1.5718E-02  2.8608E-02  4.6913E-02  6.4611E-02  7.1580E-02  6.4903E-02  4.7828E-02  3.1024E-02  2.1426E-02
   3   1.6665E-02  2.8745E-02  5.5087E-02  9.5568E-02  0.1382      0.1539      0.1387      9.7112E-02  5.9259E-02  3.8929E-02
   4   2.4724E-02  4.4805E-02  9.2289E-02  0.1755      0.2787      0.3097      0.2794      0.1777      9.8347E-02  6.0129E-02
   5   2.6416E-02  5.0776E-02  0.1173      0.2666      0.5268      0.5655      0.5275      0.2688      0.1237      6.7265E-02
   6   1.1585E-02  2.2084E-02  6.6563E-02  0.2541      0.9996      0.9162       1.000      0.2553      6.9466E-02  2.8731E-02
   7  -1.9464E-02 -5.3595E-02 -0.1538     -0.3937     -0.9191      -2.137     -0.9192     -0.3944     -0.1576     -6.8452E-02
   8  -3.7768E-02 -0.1005     -0.3022     -0.8862      -2.653      -9.240      -2.653     -0.8881     -0.3100     -0.1282    
   9  -2.1723E-02 -5.6313E-02 -0.1571     -0.3973     -0.9246      -2.142     -0.9248     -0.3983     -0.1614     -7.2305E-02
  10   7.8043E-03  1.7477E-02  6.0879E-02  0.2462      0.9749      0.8899      0.9751      0.2469      6.2736E-02  2.2230E-02
  11   2.2161E-02  4.5426E-02  0.1105      0.2585      0.5167      0.5551      0.5172      0.2603      0.1157      5.9751E-02
  12   2.0959E-02  3.9903E-02  8.5645E-02  0.1673      0.2696      0.3002      0.2701      0.1690      9.0673E-02  5.3273E-02
  13   1.3902E-02  2.5043E-02  4.9829E-02  8.8707E-02  0.1302      0.1455      0.1306      8.9914E-02  5.3246E-02  3.3768E-02
  14   7.6899E-03  1.3255E-02  2.4999E-02  4.2028E-02  5.8742E-02  6.5324E-02  5.8956E-02  4.2727E-02  2.6925E-02  1.8000E-02
  15   4.5028E-03  7.4967E-03  1.3588E-02  2.1979E-02  2.9813E-02  3.2974E-02  2.9945E-02  2.2403E-02  1.4732E-02  1.0231E-02

 HEAD WILL BE SAVED ON UNIT 1100 AT END OF TIME STEP   59, STRESS PERIOD    2


  VOLUME BUDGET FOR ENTIRE MODEL AT END OF TIME STEP   59, STRESS PERIOD   2
  ---------------------------------------------------------------------------------------------------

     CUMULATIVE VOLUME      L**3       RATES FOR THIS TIME STEP      L**3/T          PACKAGE NAME    
     ------------------                 ------------------------                     ----------------

           IN:                                      IN:
           ---                                      ---
              STO-SS =          22.7174                STO-SS =       1.1255E-02     STORAGE                          
              STO-SY =       56822.8543                STO-SY =          23.7672     STORAGE                          
                 WEL =           0.0000                   WEL =           0.0000     WEL-1                            
                 DRN =           0.0000                   DRN =           0.0000     DRN-0                            
                 API =      120201.0447                   API =         208.5438     MAR                              
                 CHD =       2.0279E-08                   CHD =           0.0000     CHD_0                            

            TOTAL IN =      177046.6164              TOTAL IN =         232.3223

          OUT:                                     OUT:
          ----                                     ----
              STO-SS =          19.0986                STO-SS =       1.2035E-02     STORAGE                          
              STO-SY =       37257.6667                STO-SY =          23.7664     STORAGE                          
                 WEL =      139769.8509                   WEL =         208.5438     WEL-1                            
                 DRN =       1.9859E-04                   DRN =       3.3609E-07     DRN-0                            
                 API =           0.0000                   API =           0.0000     MAR                              
                 CHD =       2.0705E-08                   CHD =           0.0000     CHD_0                            

           TOTAL OUT =      177046.6164             TOTAL OUT =         232.3223

            IN - OUT =      -1.1873E-06              IN - OUT =       8.7712E-10

 PERCENT DISCREPANCY =          -0.00     PERCENT DISCREPANCY =           0.00




         TIME SUMMARY AT END OF TIME STEP   59 IN STRESS PERIOD    2
                    SECONDS     MINUTES      HOURS       DAYS        YEARS
                    -----------------------------------------------------------
   TIME STEP LENGTH 8.64000E+05  14400.      240.00      10.000     2.73785E-02
 STRESS PERIOD TIME 5.09760E+07 8.49600E+05  14160.      590.00      1.6153    
         TOTAL TIME 5.10624E+07 8.51040E+05  14184.      591.00      1.6181    


end timestep


start timestep kper="2" kstp="60" mode="normal"

 UBDSV1 SAVING           STO-SS ON UNIT   1099 AT TIME STEP     60, STRESS PERIOD      2
 UBDSV1 SAVING           STO-SY ON UNIT   1099 AT TIME STEP     60, STRESS PERIOD      2
 UBDSV1 SAVING     FLOW-JA-FACE ON UNIT   1099 AT TIME STEP     60, STRESS PERIOD      2
 UBDSV06 SAVING       DATA-SPDIS IN MODEL GWF              PACKAGE NPF             CONNECTED TO MODEL GWF              PACKAGE NPF              ON UNIT   1099 AT TIME STEP     60, STRESS PERIOD      2
 UBDSV06 SAVING              WEL IN MODEL GWF              PACKAGE GWF             CONNECTED TO MODEL GWF              PACKAGE WEL-1            ON UNIT   1099 AT TIME STEP     60, STRESS PERIOD      2
 UBDSV06 SAVING              DRN IN MODEL GWF              PACKAGE GWF             CONNECTED TO MODEL GWF              PACKAGE DRN-0            ON UNIT   1099 AT TIME STEP     60, STRESS PERIOD      2
 UBDSV06 SAVING              API IN MODEL GWF              PACKAGE GWF             CONNECTED TO MODEL GWF              PACKAGE MAR              ON UNIT   1099 AT TIME STEP     60, STRESS PERIOD      2
 UBDSV06 SAVING              CHD IN MODEL GWF              PACKAGE GWF             CONNECTED TO MODEL GWF              PACKAGE CHD_0            ON UNIT   1099 AT TIME STEP     60, STRESS PERIOD      2

    CALCULATED INTERCELL FLOW FOR PERIOD 2 STEP 60
(1,1,1): (1,1,2) 3.615268E-02 (1,2,1) 3.865224E-02
(1,1,2): (1,1,1) -3.615268E-02 (1,1,3) 7.199743E-02 (1,2,2) 6.664583E-02
(1,1,3): (1,1,2) -7.199743E-02 (1,1,4) 9.685613E-02 (1,2,3) 0.127075
(1,1,4): (1,1,3) -9.685613E-02 (1,1,5) 8.888035E-02 (1,2,4) 0.217866
(1,1,5): (1,1,4) -8.888035E-02 (1,1,6) 3.584479E-02 (1,2,5) 0.310292
(1,1,6): (1,1,5) -3.584479E-02 (1,1,7) -3.381994E-02 (1,2,6) 0.345967
(1,1,7): (1,1,6) 3.381994E-02 (1,1,8) -8.469722E-02 (1,2,7) 0.311430
(1,1,8): (1,1,7) 8.469722E-02 (1,1,9) -8.719175E-02 (1,2,8) 0.221480
(1,1,9): (1,1,8) 8.719175E-02 (1,1,10) -5.176787E-02 (1,2,9) 0.136816
(1,1,10): (1,1,9) 5.176787E-02 (1,2,10) 9.038238E-02
(1,2,1): (1,1,1) -3.865224E-02 (1,2,2) 6.414558E-02 (1,3,1) 7.346596E-02
(1,2,2): (1,1,2) -6.664583E-02 (1,2,1) -6.414558E-02 (1,2,3) 0.132429 (1,3,2) 0.132648
(1,2,3): (1,1,3) -0.127075 (1,2,2) -0.132429 (1,2,4) 0.187620 (1,3,3) 0.268969
(1,2,4): (1,1,4) -0.217866 (1,2,3) -0.187620 (1,2,5) 0.181189 (1,3,4) 0.494848
(1,2,5): (1,1,5) -0.310292 (1,2,4) -0.181189 (1,2,6) 7.142437E-02 (1,3,5) 0.750875
(1,2,6): (1,1,6) -0.345967 (1,2,5) -7.142437E-02 (1,2,7) -6.826303E-02 (1,3,6) 0.840809
(1,2,7): (1,1,7) -0.311430 (1,2,6) 6.826303E-02 (1,2,8) -0.174526 (1,3,7) 0.752952
(1,2,8): (1,1,8) -0.221480 (1,2,7) 0.174526 (1,2,9) -0.171815 (1,3,8) 0.501483
(1,2,9): (1,1,9) -0.136816 (1,2,8) 0.171815 (1,2,10) -9.818357E-02 (1,3,9) 0.287185
(1,2,10): (1,1,10) -9.038238E-02 (1,2,9) 9.818357E-02 (1,3,10) 0.178506
(1,3,1): (1,2,1) -7.346596E-02 (1,3,2) 0.123322 (1,4,1) 8.107046E-02
(1,3,2): (1,2,2) -0.132648 (1,3,1) -0.123322 (1,3,3) 0.268750 (1,4,2) 0.161276
(1,3,3): (1,2,3) -0.268969 (1,3,2) -0.268750 (1,3,4) 0.413320 (1,4,3) 0.374932
(1,3,4): (1,2,4) -0.494848 (1,3,3) -0.413320 (1,3,5) 0.436440 (1,4,4) 0.812794
(1,3,5): (1,2,5) -0.750875 (1,3,4) -0.436440 (1,3,6) 0.160773 (1,4,5) 1.44431
(1,3,6): (1,2,6) -0.840809 (1,3,5) -0.160773 (1,3,7) -0.155544 (1,4,6) 1.60660
(1,3,7): (1,2,7) -0.752952 (1,3,6) 0.155544 (1,3,8) -0.425201 (1,4,7) 1.44646
(1,3,8): (1,2,8) -0.501483 (1,3,7) 0.425201 (1,3,9) -0.385870 (1,4,8) 0.819657
(1,3,9): (1,2,9) -0.287185 (1,3,8) 0.385870 (1,3,10) -0.206777 (1,4,9) 0.394308
(1,3,10): (1,2,10) -0.178506 (1,3,9) 0.206777 (1,4,10) 0.213202
(1,4,1): (1,3,1) -8.107046E-02 (1,4,2) 0.203561 (1,5,1) 1.391355E-02
(1,4,2): (1,3,2) -0.161276 (1,4,1) -0.203561 (1,4,3) 0.482631 (1,5,2) 5.511009E-02
(1,4,3): (1,3,3) -0.374932 (1,4,2) -0.482631 (1,4,4) 0.851343 (1,5,3) 0.245658
(1,4,4): (1,3,4) -0.812794 (1,4,3) -0.851343 (1,4,5) 1.06572 (1,5,4) 0.925193
(1,4,5): (1,3,5) -1.44431 (1,4,4) -1.06572 (1,4,6) 0.321155 (1,5,5) 2.60305
(1,4,6): (1,3,6) -1.60660 (1,4,5) -0.321155 (1,4,7) -0.313789 (1,5,6) 2.69515
(1,4,7): (1,3,7) -1.44646 (1,4,6) 0.313789 (1,4,8) -1.04969 (1,5,7) 2.60342
(1,4,8): (1,3,8) -0.819657 (1,4,7) 1.04969 (1,4,9) -0.811185 (1,5,8) 0.925977
(1,4,9): (1,3,9) -0.394308 (1,4,8) 0.811185 (1,4,10) -0.387871 (1,5,9) 0.247859
(1,4,10): (1,3,10) -0.213202 (1,4,9) 0.387871 (1,5,10) 6.501670E-02
(1,5,1): (1,4,1) -1.391355E-02 (1,5,2) 0.244835 (1,6,1) -0.155560
(1,5,2): (1,4,2) -5.511009E-02 (1,5,1) -0.244835 (1,5,3) 0.673975 (1,6,2) -0.298706
(1,5,3): (1,4,3) -0.245658 (1,5,2) -0.673975 (1,5,4) 1.53479 (1,6,3) -0.529535
(1,5,4): (1,4,4) -0.925193 (1,5,3) -1.53479 (1,5,5) 2.74571 (1,6,4) -0.146589
(1,5,5): (1,4,5) -2.60305 (1,5,4) -2.74571 (1,5,6) 0.411561 (1,6,5) 5.18675
(1,5,6): (1,4,6) -2.69515 (1,5,5) -0.411561 (1,5,7) -0.403827 (1,6,6) 3.81763
(1,5,7): (1,4,7) -2.60342 (1,5,6) 0.403827 (1,5,8) -2.72900 (1,6,7) 5.18342
(1,5,8): (1,4,8) -0.925977 (1,5,7) 2.72900 (1,5,9) -1.49293 (1,6,8) -0.158376
(1,5,9): (1,4,9) -0.247859 (1,5,8) 1.49293 (1,5,10) -0.571289 (1,6,9) -0.566437
(1,5,10): (1,4,10) -6.501670E-02 (1,5,9) 0.571289 (1,6,10) -0.402298
(1,6,1): (1,5,1) 0.155560 (1,6,2) 0.101765 (1,7,1) -0.318548
(1,6,2): (1,5,2) 0.298706 (1,6,1) -0.101765 (1,6,3) 0.442823 (1,7,2) -0.769993
(1,6,3): (1,5,3) 0.529535 (1,6,2) -0.442823 (1,6,4) 1.92288 (1,7,3) -2.23676
(1,6,4): (1,5,4) 0.146589 (1,6,3) -1.92288 (1,6,5) 8.21249 (1,7,4) -6.66871
(1,6,5): (1,5,5) -5.18675 (1,6,4) -8.21249 (1,6,6) -0.911726 (1,7,5) -21.1384
(1,6,6): (1,5,6) -3.81763 (1,6,5) 0.911726 (1,6,7) 0.916283 (1,7,6) -33.3538
(1,6,7): (1,5,7) -5.18342 (1,6,6) -0.916283 (1,6,8) -8.20419 (1,7,7) -21.1445
(1,6,8): (1,5,8) 0.158376 (1,6,7) 8.20419 (1,6,9) -1.90626 (1,7,8) -6.68966
(1,6,9): (1,5,9) 0.566437 (1,6,8) 1.90626 (1,6,10) -0.407142 (1,7,9) -2.30621
(1,6,10): (1,5,10) 0.402298 (1,6,9) 0.407142 (1,7,10) -0.990573
(1,7,1): (1,6,1) 0.318548 (1,7,2) -0.347894 (1,8,1) -0.186073
(1,7,2): (1,6,2) 0.769993 (1,7,1) 0.347894 (1,7,3) -1.00832 (1,8,2) -0.471085
(1,7,3): (1,6,3) 2.23676 (1,7,2) 1.00832 (1,7,4) -2.36878 (1,8,3) -1.46882
(1,7,4): (1,6,4) 6.66871 (1,7,3) 2.36878 (1,7,5) -5.03859 (1,8,4) -4.73994
(1,7,5): (1,6,5) 21.1384 (1,7,4) 5.03859 (1,7,6) -11.0426 (1,8,5) -15.7466
(1,7,6): (1,6,6) 33.3538 (1,7,5) 11.0426 (1,7,7) 11.0419 (1,8,6) -55.8320
(1,7,7): (1,6,7) 21.1445 (1,7,6) -11.0419 (1,7,8) 5.03141 (1,8,7) -15.7498
(1,7,8): (1,6,8) 6.68966 (1,7,7) -5.03141 (1,7,9) 2.33609 (1,8,8) -4.75171
(1,7,9): (1,6,9) 2.30621 (1,7,8) -2.33609 (1,7,10) 0.891992 (1,8,9) -1.50831
(1,7,10): (1,6,10) 0.990573 (1,7,9) -0.891992 (1,8,10) -0.599769
(1,8,1): (1,7,1) 0.186073 (1,8,2) -0.633372 (1,9,1) 0.163632
(1,8,2): (1,7,2) 0.471085 (1,8,1) 0.633372 (1,8,3) -2.01155 (1,9,2) 0.444285
(1,8,3): (1,7,3) 1.46882 (1,8,2) 2.01155 (1,8,4) -5.67139 (1,9,3) 1.43696
(1,8,4): (1,7,4) 4.73994 (1,8,3) 5.67139 (1,8,5) -16.0838 (1,9,4) 4.70226
(1,8,5): (1,7,5) 15.7466 (1,8,4) 16.0838 (1,8,6) -48.3468 (1,9,5) 15.6764
(1,8,6): (1,7,6) 55.8320 (1,8,5) 48.3468 (1,8,7) 48.3407 (1,9,6) 55.7265
(1,8,7): (1,7,7) 15.7498 (1,8,6) -48.3407 (1,8,8) 16.0656 (1,9,7) 15.6784
(1,8,8): (1,7,8) 4.75171 (1,8,7) -16.0656 (1,8,9) 5.60823 (1,9,8) 4.71095
(1,8,9): (1,7,9) 1.50831 (1,8,8) -5.60823 (1,8,10) 1.80327 (1,9,9) 1.47008
(1,8,10): (1,7,10) 0.599769 (1,8,9) -1.80327 (1,9,10) 0.561844
(1,9,1): (1,8,1) -0.163632 (1,9,2) -0.352184 (1,10,1) 0.303180
(1,9,2): (1,8,2) -0.444285 (1,9,1) 0.352184 (1,9,3) -1.01308 (1,10,2) 0.750761
(1,9,3): (1,8,3) -1.43696 (1,9,2) 1.01308 (1,9,4) -2.37337 (1,10,3) 2.21016
(1,9,4): (1,8,4) -4.70226 (1,9,3) 2.37337 (1,9,5) -5.06311 (1,10,4) 6.61240
(1,9,5): (1,8,5) -15.6764 (1,9,4) 5.06311 (1,9,6) -11.0398 (1,10,5) 20.8443
(1,9,6): (1,8,6) -55.7265 (1,9,5) 11.0398 (1,9,7) 11.0379 (1,10,6) 33.0062
(1,9,7): (1,8,7) -15.6784 (1,9,6) -11.0379 (1,9,8) 5.05397 (1,10,7) 20.8495
(1,9,8): (1,8,8) -4.71095 (1,9,7) -5.05397 (1,9,9) 2.33727 (1,10,8) 6.63123
(1,9,9): (1,8,9) -1.47008 (1,9,8) -2.33727 (1,9,10) 0.891942 (1,10,9) 2.27523
(1,9,10): (1,8,10) -0.561844 (1,9,9) -0.891942 (1,10,10) 0.963504
(1,10,1): (1,9,1) -0.303180 (1,10,2) 9.371400E-02 (1,11,1) 0.150562
(1,10,2): (1,9,2) -0.750761 (1,10,1) -9.371400E-02 (1,10,3) 0.431101 (1,11,2) 0.291069
(1,10,3): (1,9,3) -2.21016 (1,10,2) -0.431101 (1,10,4) 1.89082 (1,11,3) 0.518483
(1,10,4): (1,9,4) -6.61240 (1,10,3) -1.89082 (1,10,5) 7.97567 (1,11,4) 0.152134
(1,10,5): (1,9,5) -20.8443 (1,10,4) -7.97567 (1,10,6) -0.932435 (1,11,5) -4.98227
(1,10,6): (1,9,6) -33.0062 (1,10,5) 0.932435 (1,10,7) 0.935080 (1,11,6) -3.59886
(1,10,7): (1,9,7) -20.8495 (1,10,6) -0.935080 (1,10,8) -7.97065 (1,11,7) -4.97915
(1,10,8): (1,9,8) -6.63123 (1,10,7) 7.97065 (1,10,9) -1.87990 (1,11,8) 0.163295
(1,10,9): (1,9,9) -2.27523 (1,10,8) 1.87990 (1,10,10) -0.403681 (1,11,9) 0.553989
(1,10,10): (1,9,10) -0.963504 (1,10,9) 0.403681 (1,11,10) 0.391730
(1,11,1): (1,10,1) -0.150562 (1,11,2) 0.234142 (1,12,1) -9.229385E-03
(1,11,2): (1,10,2) -0.291069 (1,11,1) -0.234142 (1,11,3) 0.658824 (1,12,2) -5.088916E-02
(1,11,3): (1,10,3) -0.518483 (1,11,2) -0.658824 (1,11,4) 1.51961 (1,12,3) -0.243606
(1,11,4): (1,10,4) -0.152134 (1,11,3) -1.51961 (1,11,5) 2.71353 (1,12,4) -0.924208
(1,11,5): (1,10,5) 4.98227 (1,11,4) -2.71353 (1,11,6) 0.406863 (1,12,5) -2.58195
(1,11,6): (1,10,6) 3.59886 (1,11,5) -0.406863 (1,11,7) -0.401226 (1,12,6) -2.67297
(1,11,7): (1,10,7) 4.97915 (1,11,6) 0.401226 (1,11,8) -2.70038 (1,12,7) -2.58201
(1,11,8): (1,10,8) -0.163295 (1,11,7) 2.70038 (1,11,9) -1.48420 (1,12,8) -0.924281
(1,11,9): (1,10,9) -0.553989 (1,11,8) 1.48420 (1,11,10) -0.565959 (1,12,9) -0.244442
(1,11,10): (1,10,10) -0.391730 (1,11,9) 0.565959 (1,12,10) -5.881093E-02
(1,12,1): (1,11,1) 9.229385E-03 (1,12,2) 0.192407 (1,13,1) -7.117910E-02
(1,12,2): (1,11,2) 5.088916E-02 (1,12,1) -0.192407 (1,12,3) 0.465326 (1,13,2) -0.149501
(1,12,3): (1,11,3) 0.243606 (1,12,2) -0.465326 (1,12,4) 0.835176 (1,13,3) -0.361260
(1,12,4): (1,11,4) 0.924208 (1,12,3) -0.835176 (1,12,5) 1.05385 (1,13,4) -0.799004
(1,12,5): (1,11,5) 2.58195 (1,12,4) -1.05385 (1,12,6) 0.317496 (1,13,5) -1.43023
(1,12,6): (1,11,6) 2.67297 (1,12,5) -0.317496 (1,12,7) -0.311927 (1,13,6) -1.59326
(1,12,7): (1,11,7) 2.58201 (1,12,6) 0.311927 (1,12,8) -1.04090 (1,13,7) -1.43187
(1,12,8): (1,11,8) 0.924281 (1,12,7) 1.04090 (1,12,9) -0.800767 (1,13,8) -0.804523
(1,12,9): (1,11,9) 0.244442 (1,12,8) 0.800767 (1,12,10) -0.379746 (1,13,9) -0.377832
(1,12,10): (1,11,10) 5.881093E-02 (1,12,9) 0.379746 (1,13,10) -0.196528
(1,13,1): (1,12,1) 7.117910E-02 (1,13,2) 0.114052 (1,14,1) -6.386862E-02
(1,13,2): (1,12,2) 0.149501 (1,13,1) -0.114052 (1,13,3) 0.253351 (1,14,2) -0.120381
(1,13,3): (1,12,3) 0.361260 (1,13,2) -0.253351 (1,13,4) 0.397279 (1,14,3) -0.252722
(1,13,4): (1,12,4) 0.799004 (1,13,3) -0.397279 (1,13,5) 0.424848 (1,14,4) -0.475268
(1,13,5): (1,12,5) 1.43023 (1,13,4) -0.424848 (1,13,6) 0.156374 (1,14,5) -0.729518
(1,13,6): (1,12,6) 1.59326 (1,13,5) -0.156374 (1,13,7) -0.152430 (1,14,6) -0.818919
(1,13,7): (1,12,7) 1.43187 (1,13,6) 0.152430 (1,13,8) -0.415851 (1,14,7) -0.731131
(1,13,8): (1,12,8) 0.804523 (1,13,7) 0.415851 (1,13,9) -0.374091 (1,14,8) -0.480657
(1,13,9): (1,12,9) 0.377832 (1,13,8) 0.374091 (1,13,10) -0.198439 (1,14,9) -0.268252
(1,13,10): (1,12,10) 0.196528 (1,13,9) 0.198439 (1,14,10) -0.161287
(1,14,1): (1,13,1) 6.386862E-02 (1,14,2) 5.754233E-02 (1,15,1) -3.309249E-02
(1,14,2): (1,13,2) 0.120381 (1,14,1) -5.754233E-02 (1,14,3) 0.121010 (1,15,2) -5.931968E-02
(1,14,3): (1,13,3) 0.252722 (1,14,2) -0.121010 (1,14,4) 0.174903 (1,15,3) -0.116875
(1,14,4): (1,13,4) 0.475268 (1,14,3) -0.174903 (1,14,5) 0.171347 (1,15,4) -0.204784
(1,14,5): (1,13,5) 0.729518 (1,14,4) -0.171347 (1,14,6) 6.754029E-02 (1,15,5) -0.295243
(1,14,6): (1,13,6) 0.818919 (1,14,5) -6.754029E-02 (1,14,7) -6.520329E-02 (1,15,6) -0.330180
(1,14,7): (1,13,7) 0.731131 (1,14,6) 6.520329E-02 (1,14,8) -0.166141 (1,15,7) -0.296124
(1,14,8): (1,13,8) 0.480657 (1,14,7) 0.166141 (1,14,9) -0.161907 (1,15,8) -0.207695
(1,14,9): (1,13,9) 0.268252 (1,14,8) 0.161907 (1,14,10) -9.154752E-02 (1,15,9) -0.125073
(1,14,10): (1,13,10) 0.161287 (1,14,9) 9.154752E-02 (1,15,10) -8.013844E-02
(1,15,1): (1,14,1) 3.309249E-02 (1,15,2) 3.131560E-02
(1,15,2): (1,14,2) 5.931968E-02 (1,15,1) -3.131560E-02 (1,15,3) 6.345242E-02
(1,15,3): (1,14,3) 0.116875 (1,15,2) -6.345242E-02 (1,15,4) 8.701936E-02
(1,15,4): (1,14,4) 0.204784 (1,15,3) -8.701936E-02 (1,15,5) 8.099782E-02
(1,15,5): (1,14,5) 0.295243 (1,15,4) -8.099782E-02 (1,15,6) 3.269393E-02
(1,15,6): (1,14,6) 0.330180 (1,15,5) -3.269393E-02 (1,15,7) -3.123625E-02
(1,15,7): (1,14,7) 0.296124 (1,15,6) 3.123625E-02 (1,15,8) -7.782414E-02
(1,15,8): (1,14,8) 0.207695 (1,15,7) 7.782414E-02 (1,15,9) -7.932314E-02
(1,15,9): (1,14,9) 0.125073 (1,15,8) 7.932314E-02 (1,15,10) -4.662774E-02
(1,15,10): (1,14,10) 8.013844E-02 (1,15,9) 4.662774E-02

 WEL PACKAGE (WEL-1) FLOW RATES   PERIOD      2   STEP       60
 ----------------------------------------------------------------------------------------
   NUMBER   CELLID                    RATE       NAME                                    
 ----------------------------------------------------------------------------------------
     1      (1,8,6)              -208.36169      WEL                                     
 ----------------------------------------------------------------------------------------




 DRN PACKAGE (DRN-0) FLOW RATES   PERIOD      2   STEP       60
 ----------------------------------------------------------------------------------------
   NUMBER   CELLID                    RATE       NAME                                    
 ----------------------------------------------------------------------------------------
     1      (1,1,1)               0.0000000      SURF                                    
     2      (1,1,2)               0.0000000      SURF                                    
     3      (1,1,3)               0.0000000      SURF                                    
     4      (1,1,4)               0.0000000      SURF                                    
     5      (1,1,5)               0.0000000      SURF                                    
     6      (1,1,6)               0.0000000      SURF                                    
     7      (1,1,7)               0.0000000      SURF                                    
     8      (1,1,8)               0.0000000      SURF                                    
     9      (1,1,9)               0.0000000      SURF                                    
     10     (1,1,10)              0.0000000      SURF                                    
     11     (1,2,1)               0.0000000      SURF                                    
     12     (1,2,2)               0.0000000      SURF                                    
     13     (1,2,3)               0.0000000      SURF                                    
     14     (1,2,4)               0.0000000      SURF                                    
     15     (1,2,5)               0.0000000      SURF                                    
     16     (1,2,6)               0.0000000      SURF                                    
     17     (1,2,7)               0.0000000      SURF                                    
     18     (1,2,8)               0.0000000      SURF                                    
     19     (1,2,9)               0.0000000      SURF                                    
     20     (1,2,10)              0.0000000      SURF                                    
     21     (1,3,1)               0.0000000      SURF                                    
     22     (1,3,2)               0.0000000      SURF                                    
     23     (1,3,3)               0.0000000      SURF                                    
     24     (1,3,4)               0.0000000      SURF                                    
     25     (1,3,5)               0.0000000      SURF                                    
     26     (1,3,6)               0.0000000      SURF                                    
     27     (1,3,7)               0.0000000      SURF                                    
     28     (1,3,8)               0.0000000      SURF                                    
     29     (1,3,9)               0.0000000      SURF                                    
     30     (1,3,10)              0.0000000      SURF                                    
     31     (1,4,1)               0.0000000      SURF                                    
     32     (1,4,2)               0.0000000      SURF                                    
     33     (1,4,3)               0.0000000      SURF                                    
     34     (1,4,4)               0.0000000      SURF                                    
     35     (1,4,5)               0.0000000      SURF                                    
     36     (1,4,6)               0.0000000      SURF                                    
     37     (1,4,7)               0.0000000      SURF                                    
     38     (1,4,8)               0.0000000      SURF                                    
     39     (1,4,9)               0.0000000      SURF                                    
     40     (1,4,10)              0.0000000      SURF                                    
     41     (1,5,1)               0.0000000      SURF                                    
     42     (1,5,2)               0.0000000      SURF                                    
     43     (1,5,3)               0.0000000      SURF                                    
     44     (1,5,4)               0.0000000      SURF                                    
     45     (1,5,5)               0.0000000      SURF                                    
     46     (1,5,6)               0.0000000      SURF                                    
     47     (1,5,7)               0.0000000      SURF                                    
     48     (1,5,8)               0.0000000      SURF                                    
     49     (1,5,9)               0.0000000      SURF                                    
     50     (1,5,10)              0.0000000      SURF                                    
     51     (1,6,1)               0.0000000      SURF                                    
     52     (1,6,2)               0.0000000      SURF                                    
     53     (1,6,3)               0.0000000      SURF                                    
     54     (1,6,4)               0.0000000      SURF                                    
     55     (1,6,5)               0.0000000      SURF                                    
     56     (1,6,6)               0.0000000      SURF                                    
     57     (1,6,7)              -3.34708602E-07 SURF                                    
     58     (1,6,8)               0.0000000      SURF                                    
     59     (1,6,9)               0.0000000      SURF                                    
     60     (1,6,10)              0.0000000      SURF                                    
     61     (1,7,1)               0.0000000      SURF                                    
     62     (1,7,2)               0.0000000      SURF                                    
     63     (1,7,3)               0.0000000      SURF                                    
     64     (1,7,4)               0.0000000      SURF                                    
     65     (1,7,5)               0.0000000      SURF                                    
     66     (1,7,6)               0.0000000      SURF                                    
     67     (1,7,7)               0.0000000      SURF                                    
     68     (1,7,8)               0.0000000      SURF                                    
     69     (1,7,9)               0.0000000      SURF                                    
     70     (1,7,10)              0.0000000      SURF                                    
     71     (1,8,1)               0.0000000      SURF                                    
     72     (1,8,2)               0.0000000      SURF                                    
     73     (1,8,3)               0.0000000      SURF                                    
     74     (1,8,4)               0.0000000      SURF                                    
     75     (1,8,5)               0.0000000      SURF                                    
     76     (1,8,6)               0.0000000      SURF                                    
     77     (1,8,7)               0.0000000      SURF                                    
     78     (1,8,8)               0.0000000      SURF                                    
     79     (1,8,9)               0.0000000      SURF                                    
     80     (1,8,10)              0.0000000      SURF                                    
     81     (1,9,1)               0.0000000      SURF                                    
     82     (1,9,2)               0.0000000      SURF                                    
     83     (1,9,3)               0.0000000      SURF                                    
     84     (1,9,4)               0.0000000      SURF                                    
     85     (1,9,5)               0.0000000      SURF                                    
     86     (1,9,6)               0.0000000      SURF                                    
     87     (1,9,7)               0.0000000      SURF                                    
     88     (1,9,8)               0.0000000      SURF                                    
     89     (1,9,9)               0.0000000      SURF                                    
     90     (1,9,10)              0.0000000      SURF                                    
     91     (1,10,1)              0.0000000      SURF                                    
     92     (1,10,2)              0.0000000      SURF                                    
     93     (1,10,3)              0.0000000      SURF                                    
     94     (1,10,4)              0.0000000      SURF                                    
     95     (1,10,5)              0.0000000      SURF                                    
     96     (1,10,6)              0.0000000      SURF                                    
     97     (1,10,7)              0.0000000      SURF                                    
     98     (1,10,8)              0.0000000      SURF                                    
     99     (1,10,9)              0.0000000      SURF                                    
    100     (1,10,10)             0.0000000      SURF                                    
    101     (1,11,1)              0.0000000      SURF                                    
    102     (1,11,2)              0.0000000      SURF                                    
    103     (1,11,3)              0.0000000      SURF                                    
    104     (1,11,4)              0.0000000      SURF                                    
    105     (1,11,5)              0.0000000      SURF                                    
    106     (1,11,6)              0.0000000      SURF                                    
    107     (1,11,7)              0.0000000      SURF                                    
    108     (1,11,8)              0.0000000      SURF                                    
    109     (1,11,9)              0.0000000      SURF                                    
    110     (1,11,10)             0.0000000      SURF                                    
    111     (1,12,1)              0.0000000      SURF                                    
    112     (1,12,2)              0.0000000      SURF                                    
    113     (1,12,3)              0.0000000      SURF                                    
    114     (1,12,4)              0.0000000      SURF                                    
    115     (1,12,5)              0.0000000      SURF                                    
    116     (1,12,6)              0.0000000      SURF                                    
    117     (1,12,7)              0.0000000      SURF                                    
    118     (1,12,8)              0.0000000      SURF                                    
    119     (1,12,9)              0.0000000      SURF                                    
    120     (1,12,10)             0.0000000      SURF                                    
    121     (1,13,1)              0.0000000      SURF                                    
    122     (1,13,2)              0.0000000      SURF                                    
    123     (1,13,3)              0.0000000      SURF                                    
    124     (1,13,4)              0.0000000      SURF                                    
    125     (1,13,5)              0.0000000      SURF                                    
    126     (1,13,6)              0.0000000      SURF                                    
    127     (1,13,7)              0.0000000      SURF                                    
    128     (1,13,8)              0.0000000      SURF                                    
    129     (1,13,9)              0.0000000      SURF                                    
    130     (1,13,10)             0.0000000      SURF                                    
    131     (1,14,1)              0.0000000      SURF                                    
    132     (1,14,2)              0.0000000      SURF                                    
    133     (1,14,3)              0.0000000      SURF                                    
    134     (1,14,4)              0.0000000      SURF                                    
    135     (1,14,5)              0.0000000      SURF                                    
    136     (1,14,6)              0.0000000      SURF                                    
    137     (1,14,7)              0.0000000      SURF                                    
    138     (1,14,8)              0.0000000      SURF                                    
    139     (1,14,9)              0.0000000      SURF                                    
    140     (1,14,10)             0.0000000      SURF                                    
    141     (1,15,1)              0.0000000      SURF                                    
    142     (1,15,2)              0.0000000      SURF                                    
    143     (1,15,3)              0.0000000      SURF                                    
    144     (1,15,4)              0.0000000      SURF                                    
    145     (1,15,5)              0.0000000      SURF                                    
    146     (1,15,6)              0.0000000      SURF                                    
    147     (1,15,7)              0.0000000      SURF                                    
    148     (1,15,8)              0.0000000      SURF                                    
    149     (1,15,9)              0.0000000      SURF                                    
    150     (1,15,10)             0.0000000      SURF                                    
 ----------------------------------------------------------------------------------------




 API PACKAGE (MAR) FLOW RATES   PERIOD      2   STEP       60
 -----------------------------------------------
   NUMBER   CELLID                    RATE      
 -----------------------------------------------
     1      (1,6,5)               35.448405     
     2      (1,6,6)               35.448405     
     3      (1,6,7)               35.448405     
     4      (1,10,5)              34.005492     
     5      (1,10,6)              34.005492     
     6      (1,10,7)              34.005492     
 -----------------------------------------------



1
  HEAD IN LAYER   1 AT END OF TIME STEP  60 IN STRESS PERIOD    2
  ---------------------------------------------------------------------------

            1           2           3           4           5           6           7           8           9          10
 ........................................................................................................................
   1   6.1237E-03  9.7354E-03  1.6923E-02  2.6583E-02  3.5440E-02  3.9010E-02  3.5641E-02  2.7202E-02  1.8506E-02  1.3339E-02
   2   9.9851E-03  1.6389E-02  2.9593E-02  4.8265E-02  6.6265E-02  7.3355E-02  6.6578E-02  4.9241E-02  3.2144E-02  2.2357E-02
   3   1.7319E-02  2.9615E-02  5.6339E-02  9.7273E-02  0.1403      0.1561      0.1408      9.8898E-02  6.0689E-02  4.0136E-02
   4   2.5405E-02  4.5669E-02  9.3485E-02  0.1771      0.2808      0.3119      0.2815      0.1794      9.9731E-02  6.1326E-02
   5   2.6793E-02  5.1152E-02  0.1178      0.2672      0.5280      0.5670      0.5288      0.2696      0.1242      6.7784E-02
   6   1.1279E-02  2.1433E-02  6.5428E-02  0.2530      0.9996      0.9167       1.000      0.2542      6.8264E-02  2.7825E-02
   7  -2.0540E-02 -5.5401E-02 -0.1568     -0.3974     -0.9222      -2.139     -0.9222     -0.3982     -0.1608     -7.0957E-02
   8  -3.9186E-02 -0.1028     -0.3060     -0.8911      -2.657      -9.241      -2.657     -0.8931     -0.3141     -0.1314    
   9  -2.2785E-02 -5.8084E-02 -0.1600     -0.4012     -0.9287      -2.146     -0.9288     -0.4023     -0.1646     -7.4755E-02
  10   7.5100E-03  1.6866E-02  5.9720E-02  0.2443      0.9713      0.8863      0.9715      0.2450      6.1511E-02  2.1390E-02
  11   2.2532E-02  4.5840E-02  0.1110      0.2591      0.5171      0.5557      0.5177      0.2609      0.1163      6.0328E-02
  12   2.1611E-02  4.0774E-02  8.6906E-02  0.1690      0.2716      0.3025      0.2722      0.1708      9.2110E-02  5.4482E-02
  13   1.4509E-02  2.5885E-02  5.1091E-02  9.0463E-02  0.1324      0.1478      0.1328      9.1741E-02  5.4672E-02  3.4936E-02
  14   8.1313E-03  1.3878E-02  2.5947E-02  4.3362E-02  6.0394E-02  6.7103E-02  6.0626E-02  4.4112E-02  2.7992E-02  1.8863E-02
  15   4.8247E-03  7.9538E-03  1.4290E-02  2.2972E-02  3.1047E-02  3.4305E-02  3.1192E-02  2.3434E-02  1.5520E-02  1.0864E-02

 HEAD WILL BE SAVED ON UNIT 1100 AT END OF TIME STEP   60, STRESS PERIOD    2


  VOLUME BUDGET FOR ENTIRE MODEL AT END OF TIME STEP   60, STRESS PERIOD   2
  ---------------------------------------------------------------------------------------------------

     CUMULATIVE VOLUME      L**3       RATES FOR THIS TIME STEP      L**3/T          PACKAGE NAME    
     ------------------                 ------------------------                     ----------------

           IN:                                      IN:
           ---                                      ---
              STO-SS =          22.8282                STO-SS =       1.1079E-02     STORAGE                          
              STO-SY =       57056.4868                STO-SY =          23.3633     STORAGE                          
                 WEL =           0.0000                   WEL =           0.0000     WEL-1                            
                 DRN =           0.0000                   DRN =           0.0000     DRN-0                            
                 API =      122284.6616                   API =         208.3617     MAR                              
                 CHD =       2.0279E-08                   CHD =           0.0000     CHD_0                            

            TOTAL IN =      179363.9766              TOTAL IN =         231.7360

          OUT:                                     OUT:
          ----                                     ----
              STO-SS =          19.2168                STO-SS =       1.1828E-02     STORAGE                          
              STO-SY =       37491.2917                STO-SY =          23.3625     STORAGE                          
                 WEL =      141853.4678                   WEL =         208.3617     WEL-1                            
                 DRN =       2.0194E-04                   DRN =       3.3471E-07     DRN-0                            
                 API =           0.0000                   API =           0.0000     MAR                              
                 CHD =       2.0705E-08                   CHD =           0.0000     CHD_0                            

           TOTAL OUT =      179363.9766             TOTAL OUT =         231.7360

            IN - OUT =      -1.1786E-06              IN - OUT =       8.7829E-10

 PERCENT DISCREPANCY =          -0.00     PERCENT DISCREPANCY =           0.00




         TIME SUMMARY AT END OF TIME STEP   60 IN STRESS PERIOD    2
                    SECONDS     MINUTES      HOURS       DAYS        YEARS
                    -----------------------------------------------------------
   TIME STEP LENGTH 8.64000E+05  14400.      240.00      10.000     2.73785E-02
 STRESS PERIOD TIME 5.18400E+07 8.64000E+05  14400.      600.00      1.6427    
         TOTAL TIME 5.19264E+07 8.65440E+05  14424.      601.00      1.6454    


end timestep


start timestep kper="2" kstp="61" mode="normal"

 UBDSV1 SAVING           STO-SS ON UNIT   1099 AT TIME STEP     61, STRESS PERIOD      2
 UBDSV1 SAVING           STO-SY ON UNIT   1099 AT TIME STEP     61, STRESS PERIOD      2
 UBDSV1 SAVING     FLOW-JA-FACE ON UNIT   1099 AT TIME STEP     61, STRESS PERIOD      2
 UBDSV06 SAVING       DATA-SPDIS IN MODEL GWF              PACKAGE NPF             CONNECTED TO MODEL GWF              PACKAGE NPF              ON UNIT   1099 AT TIME STEP     61, STRESS PERIOD      2
 UBDSV06 SAVING              WEL IN MODEL GWF              PACKAGE GWF             CONNECTED TO MODEL GWF              PACKAGE WEL-1            ON UNIT   1099 AT TIME STEP     61, STRESS PERIOD      2
 UBDSV06 SAVING              DRN IN MODEL GWF              PACKAGE GWF             CONNECTED TO MODEL GWF              PACKAGE DRN-0            ON UNIT   1099 AT TIME STEP     61, STRESS PERIOD      2
 UBDSV06 SAVING              API IN MODEL GWF              PACKAGE GWF             CONNECTED TO MODEL GWF              PACKAGE MAR              ON UNIT   1099 AT TIME STEP     61, STRESS PERIOD      2
 UBDSV06 SAVING              CHD IN MODEL GWF              PACKAGE GWF             CONNECTED TO MODEL GWF              PACKAGE CHD_0            ON UNIT   1099 AT TIME STEP     61, STRESS PERIOD      2

    CALCULATED INTERCELL FLOW FOR PERIOD 2 STEP 61
(1,1,1): (1,1,2) 3.754273E-02 (1,2,1) 3.983891E-02
(1,1,2): (1,1,1) -3.754273E-02 (1,1,3) 7.447702E-02 (1,2,2) 6.819575E-02
(1,1,3): (1,1,2) -7.447702E-02 (1,1,4) 9.976078E-02 (1,2,3) 0.129264
(1,1,4): (1,1,3) -9.976078E-02 (1,1,5) 9.125533E-02 (1,2,4) 0.220811
(1,1,5): (1,1,4) -9.125533E-02 (1,1,6) 3.680261E-02 (1,2,5) 0.313879
(1,1,6): (1,1,5) -3.680261E-02 (1,1,7) -3.460267E-02 (1,2,6) 0.349822
(1,1,7): (1,1,6) 3.460267E-02 (1,1,8) -8.676883E-02 (1,2,7) 0.315076
(1,1,8): (1,1,7) 8.676883E-02 (1,1,9) -8.951885E-02 (1,2,8) 0.224581
(1,1,9): (1,1,8) 8.951885E-02 (1,1,10) -5.326395E-02 (1,2,9) 0.139334
(1,1,10): (1,1,9) 5.326395E-02 (1,2,10) 9.253716E-02
(1,2,1): (1,1,1) -3.983891E-02 (1,2,2) 6.589892E-02 (1,3,1) 7.500302E-02
(1,2,2): (1,1,2) -6.819575E-02 (1,2,1) -6.589892E-02 (1,2,3) 0.135550 (1,3,2) 0.134546
(1,2,3): (1,1,3) -0.129264 (1,2,2) -0.135550 (1,2,4) 0.191281 (1,3,3) 0.271518
(1,2,4): (1,1,4) -0.220811 (1,2,3) -0.191281 (1,2,5) 0.184205 (1,3,4) 0.498255
(1,2,5): (1,1,5) -0.313879 (1,2,4) -0.184205 (1,2,6) 7.264757E-02 (1,3,5) 0.755153
(1,2,6): (1,1,6) -0.349822 (1,2,5) -7.264757E-02 (1,2,7) -6.925244E-02 (1,3,6) 0.845484
(1,2,7): (1,1,7) -0.315076 (1,2,6) 6.925244E-02 (1,2,8) -0.177142 (1,3,7) 0.757315
(1,2,8): (1,1,8) -0.224581 (1,2,7) 0.177142 (1,2,9) -0.174723 (1,3,8) 0.505105
(1,2,9): (1,1,9) -0.139334 (1,2,8) 0.174723 (1,2,10) -0.100043 (1,3,9) 0.290165
(1,2,10): (1,1,10) -9.253716E-02 (1,2,9) 0.100043 (1,3,10) 0.181143
(1,3,1): (1,2,1) -7.500302E-02 (1,3,2) 0.125436 (1,4,1) 8.123470E-02
(1,3,2): (1,2,2) -0.134546 (1,3,1) -0.125436 (1,3,3) 0.272523 (1,4,2) 0.161089
(1,3,3): (1,2,3) -0.271518 (1,3,2) -0.272523 (1,3,4) 0.417839 (1,4,3) 0.374244
(1,3,4): (1,2,4) -0.498255 (1,3,3) -0.417839 (1,3,5) 0.440324 (1,4,4) 0.812007
(1,3,5): (1,2,5) -0.755153 (1,3,4) -0.440324 (1,3,6) 0.162388 (1,4,5) 1.44420
(1,3,6): (1,2,6) -0.845484 (1,3,5) -0.162388 (1,3,7) -0.156840 (1,4,6) 1.60695
(1,3,7): (1,2,7) -0.757315 (1,3,6) 0.156840 (1,3,8) -0.428552 (1,4,7) 1.44640
(1,3,8): (1,2,8) -0.505105 (1,3,7) 0.428552 (1,3,9) -0.389421 (1,4,8) 0.818946
(1,3,9): (1,2,9) -0.290165 (1,3,8) 0.389421 (1,3,10) -0.208978 (1,4,9) 0.393683
(1,3,10): (1,2,10) -0.181143 (1,3,9) 0.208978 (1,4,10) 0.212931
(1,4,1): (1,3,1) -8.123470E-02 (1,4,2) 0.205326 (1,5,1) 1.074612E-02
(1,4,2): (1,3,2) -0.161089 (1,4,1) -0.205326 (1,4,3) 0.485911 (1,5,2) 5.013872E-02
(1,4,3): (1,3,3) -0.374244 (1,4,2) -0.485911 (1,4,4) 0.855786 (1,5,3) 0.237915
(1,4,4): (1,3,4) -0.812007 (1,4,3) -0.855786 (1,4,5) 1.07031 (1,5,4) 0.915763
(1,4,5): (1,3,5) -1.44420 (1,4,4) -1.07031 (1,4,6) 0.323220 (1,5,5) 2.59482
(1,4,6): (1,3,6) -1.60695 (1,4,5) -0.323220 (1,4,7) -0.315493 (1,5,6) 2.68791
(1,4,7): (1,3,7) -1.44640 (1,4,6) 0.315493 (1,4,8) -1.05371 (1,5,7) 2.59510
(1,4,8): (1,3,8) -0.818946 (1,4,7) 1.05371 (1,4,9) -0.814666 (1,5,8) 0.916250
(1,4,9): (1,3,9) -0.393683 (1,4,8) 0.814666 (1,4,10) -0.389724 (1,5,9) 0.239284
(1,4,10): (1,3,10) -0.212931 (1,4,9) 0.389724 (1,5,10) 5.807861E-02
(1,5,1): (1,4,1) -1.074612E-02 (1,5,2) 0.244794 (1,6,1) -0.162430
(1,5,2): (1,4,2) -5.013872E-02 (1,5,1) -0.244794 (1,5,3) 0.674487 (1,6,2) -0.308925
(1,5,3): (1,4,3) -0.237915 (1,5,2) -0.674487 (1,5,4) 1.53761 (1,6,3) -0.544979
(1,5,4): (1,4,4) -0.915763 (1,5,3) -1.53761 (1,5,5) 2.75172 (1,6,4) -0.165019
(1,5,5): (1,4,5) -2.59482 (1,5,4) -2.75172 (1,5,6) 0.414605 (1,6,5) 5.17343
(1,5,6): (1,4,6) -2.68791 (1,5,5) -0.414605 (1,5,7) -0.406595 (1,6,6) 3.80713
(1,5,7): (1,4,7) -2.59510 (1,5,6) 0.406595 (1,5,8) -2.73464 (1,6,7) 5.16986
(1,5,8): (1,4,8) -0.916250 (1,5,7) 2.73464 (1,5,9) -1.49533 (1,6,8) -0.177514
(1,5,9): (1,4,9) -0.239284 (1,5,8) 1.49533 (1,5,10) -0.571515 (1,6,9) -0.583694
(1,5,10): (1,4,10) -5.807861E-02 (1,5,9) 0.571515 (1,6,10) -0.416518
(1,6,1): (1,5,1) 0.162430 (1,6,2) 9.839116E-02 (1,7,1) -0.326179
(1,6,2): (1,5,2) 0.308925 (1,6,1) -9.839116E-02 (1,6,3) 0.438137 (1,7,2) -0.781269
(1,6,3): (1,5,3) 0.544979 (1,6,2) -0.438137 (1,6,4) 1.92262 (1,7,3) -2.25426
(1,6,4): (1,5,4) 0.165019 (1,6,3) -1.92262 (1,6,5) 8.22485 (1,7,4) -6.69288
(1,6,5): (1,5,5) -5.17343 (1,6,4) -8.22485 (1,6,6) -0.906056 (1,7,5) -21.1703
(1,6,6): (1,5,6) -3.80713 (1,6,5) 0.906056 (1,6,7) 0.910658 (1,7,6) -33.3811
(1,6,7): (1,5,7) -5.16986 (1,6,6) -0.910658 (1,6,8) -8.21668 (1,7,7) -21.1766
(1,6,8): (1,5,8) 0.177514 (1,6,7) 8.21668 (1,6,9) -1.90669 (1,7,8) -6.71463
(1,6,9): (1,5,9) 0.583694 (1,6,8) 1.90669 (1,6,10) -0.404359 (1,7,9) -2.32569
(1,6,10): (1,5,10) 0.416518 (1,6,9) 0.404359 (1,7,10) -1.00618
(1,7,1): (1,6,1) 0.326179 (1,7,2) -0.354871 (1,8,1) -0.189406
(1,7,2): (1,6,2) 0.781269 (1,7,1) 0.354871 (1,7,3) -1.01900 (1,8,2) -0.475909
(1,7,3): (1,6,3) 2.25426 (1,7,2) 1.01900 (1,7,4) -2.37469 (1,8,3) -1.47607
(1,7,4): (1,6,4) 6.69288 (1,7,3) 2.37469 (1,7,5) -5.03043 (1,8,4) -4.74882
(1,7,5): (1,6,5) 21.1703 (1,7,4) 5.03043 (1,7,6) -11.0295 (1,8,5) -15.7516
(1,7,6): (1,6,6) 33.3811 (1,7,5) 11.0295 (1,7,7) 11.0286 (1,8,6) -55.8088
(1,7,7): (1,6,7) 21.1766 (1,7,6) -11.0286 (1,7,8) 5.02258 (1,8,7) -15.7550
(1,7,8): (1,6,8) 6.71463 (1,7,7) -5.02258 (1,7,9) 2.34008 (1,8,8) -4.76093
(1,7,9): (1,6,9) 2.32569 (1,7,8) -2.34008 (1,7,10) 0.898404 (1,8,9) -1.51642
(1,7,10): (1,6,10) 1.00618 (1,7,9) -0.898404 (1,8,10) -0.606419
(1,8,1): (1,7,1) 0.189406 (1,8,2) -0.641852 (1,9,1) 0.167106
(1,8,2): (1,7,2) 0.475909 (1,8,1) 0.641852 (1,8,3) -2.02475 (1,9,2) 0.449431
(1,8,3): (1,7,3) 1.47607 (1,8,2) 2.02475 (1,8,4) -5.67891 (1,9,3) 1.44434
(1,8,4): (1,7,4) 4.74882 (1,8,3) 5.67891 (1,8,5) -16.0697 (1,9,4) 4.70874
(1,8,5): (1,7,5) 15.7516 (1,8,4) 16.0697 (1,8,6) -48.2950 (1,9,5) 15.6699
(1,8,6): (1,7,6) 55.8088 (1,8,5) 48.2950 (1,8,7) 48.2883 (1,9,6) 55.6830
(1,8,7): (1,7,7) 15.7550 (1,8,6) -48.2883 (1,8,8) 16.0505 (1,9,7) 15.6720
(1,8,8): (1,7,8) 4.76093 (1,8,7) -16.0505 (1,8,9) 5.61322 (1,9,8) 4.71775
(1,8,9): (1,7,9) 1.51642 (1,8,8) -5.61322 (1,8,10) 1.81114 (1,9,9) 1.47835
(1,8,10): (1,7,10) 0.606419 (1,8,9) -1.81114 (1,9,10) 0.569006
(1,9,1): (1,8,1) -0.167106 (1,9,2) -0.358980 (1,10,1) 0.310789
(1,9,2): (1,8,2) -0.449431 (1,9,1) 0.358980 (1,9,3) -1.02397 (1,10,2) 0.762057
(1,9,3): (1,8,3) -1.44434 (1,9,2) 1.02397 (1,9,4) -2.38173 (1,10,3) 2.22701
(1,9,4): (1,8,4) -4.70874 (1,9,3) 2.38173 (1,9,5) -5.06281 (1,10,4) 6.63044
(1,9,5): (1,8,5) -15.6699 (1,9,4) 5.06281 (1,9,6) -11.0280 (1,10,5) 20.8403
(1,9,6): (1,8,6) -55.6830 (1,9,5) 11.0280 (1,9,7) 11.0259 (1,10,6) 32.9888
(1,9,7): (1,8,7) -15.6720 (1,9,6) -11.0259 (1,9,8) 5.05299 (1,10,7) 20.8456
(1,9,8): (1,8,8) -4.71775 (1,9,7) -5.05299 (1,9,9) 2.34377 (1,10,8) 6.65004
(1,9,9): (1,8,9) -1.47835 (1,9,8) -2.34377 (1,9,10) 0.898707 (1,10,9) 2.29407
(1,9,10): (1,8,10) -0.569006 (1,9,9) -0.898707 (1,10,10) 0.979197
(1,10,1): (1,9,1) -0.310789 (1,10,2) 9.056405E-02 (1,11,1) 0.157272
(1,10,2): (1,9,2) -0.762057 (1,10,1) -9.056405E-02 (1,10,3) 0.425570 (1,11,2) 0.301287
(1,10,3): (1,9,3) -2.22701 (1,10,2) -0.425570 (1,10,4) 1.88288 (1,11,3) 0.534923
(1,10,4): (1,9,4) -6.63044 (1,10,3) -1.88288 (1,10,5) 7.95336 (1,11,4) 0.177008
(1,10,5): (1,9,5) -20.8403 (1,10,4) -7.95336 (1,10,6) -0.932683 (1,11,5) -4.93627
(1,10,6): (1,9,6) -32.9888 (1,10,5) 0.932683 (1,10,7) 0.935338 (1,11,6) -3.55203
(1,10,7): (1,9,7) -20.8456 (1,10,6) -0.935338 (1,10,8) -7.94847 (1,11,7) -4.93292
(1,10,8): (1,9,8) -6.65004 (1,10,7) 7.94847 (1,10,9) -1.87258 (1,11,8) 0.188846
(1,10,9): (1,9,9) -2.29407 (1,10,8) 1.87258 (1,10,10) -0.399827 (1,11,9) 0.572190
(1,10,10): (1,9,10) -0.979197 (1,10,9) 0.399827 (1,11,10) 0.405899
(1,11,1): (1,10,1) -0.157272 (1,11,2) 0.234483 (1,12,1) -6.304859E-03
(1,11,2): (1,10,2) -0.301287 (1,11,1) -0.234483 (1,11,3) 0.659489 (1,12,2) -4.619150E-02
(1,11,3): (1,10,3) -0.534923 (1,11,2) -0.659489 (1,11,4) 1.52030 (1,12,3) -0.235775
(1,11,4): (1,10,4) -0.177008 (1,11,3) -1.52030 (1,11,5) 2.71181 (1,12,4) -0.912475
(1,11,5): (1,10,5) 4.93627 (1,11,4) -2.71181 (1,11,6) 0.407905 (1,12,5) -2.56470
(1,11,6): (1,10,6) 3.55203 (1,11,5) -0.407905 (1,11,7) -0.402041 (1,12,6) -2.65499
(1,11,7): (1,10,7) 4.93292 (1,11,6) 0.402041 (1,11,8) -2.69832 (1,12,7) -2.56468
(1,11,8): (1,10,8) -0.188846 (1,11,7) 2.69832 (1,11,9) -1.48441 (1,12,8) -0.912276
(1,11,9): (1,10,9) -0.572190 (1,11,8) 1.48441 (1,11,10) -0.566108 (1,12,9) -0.235850
(1,11,10): (1,10,10) -0.405899 (1,11,9) 0.566108 (1,12,10) -5.229799E-02
(1,12,1): (1,11,1) 6.304859E-03 (1,12,2) 0.194522 (1,13,1) -7.152824E-02
(1,12,2): (1,11,2) 4.619150E-02 (1,12,1) -0.194522 (1,12,3) 0.469121 (1,13,2) -0.149656
(1,12,3): (1,11,3) 0.235775 (1,12,2) -0.469121 (1,12,4) 0.839707 (1,13,3) -0.361065
(1,12,4): (1,11,4) 0.912475 (1,12,3) -0.839707 (1,12,5) 1.05742 (1,13,4) -0.798421
(1,12,5): (1,11,5) 2.56470 (1,12,4) -1.05742 (1,12,6) 0.319248 (1,13,5) -1.42915
(1,12,6): (1,11,6) 2.65499 (1,12,5) -0.319248 (1,12,7) -0.313373 (1,13,6) -1.59225
(1,12,7): (1,11,7) 2.56468 (1,12,6) 0.313373 (1,12,8) -1.04395 (1,13,7) -1.43082
(1,12,8): (1,11,8) 0.912276 (1,12,7) 1.04395 (1,12,9) -0.804330 (1,13,8) -0.804021
(1,12,9): (1,11,9) 0.235850 (1,12,8) 0.804330 (1,12,10) -0.381965 (1,13,9) -0.377749
(1,12,10): (1,11,10) 5.229799E-02 (1,12,9) 0.381965 (1,13,10) -0.196753
(1,13,1): (1,12,1) 7.152824E-02 (1,13,2) 0.116360 (1,14,1) -6.546822E-02
(1,13,2): (1,12,2) 0.149656 (1,13,1) -0.116360 (1,13,3) 0.257489 (1,14,2) -0.122488
(1,13,3): (1,12,3) 0.361065 (1,13,2) -0.257489 (1,13,4) 0.402178 (1,14,3) -0.255722
(1,13,4): (1,12,4) 0.798421 (1,13,3) -0.402178 (1,13,5) 0.428889 (1,14,4) -0.479324
(1,13,5): (1,12,5) 1.42915 (1,13,4) -0.428889 (1,13,6) 0.158046 (1,14,5) -0.734452
(1,13,6): (1,12,6) 1.59225 (1,13,5) -0.158046 (1,13,7) -0.153835 (1,14,6) -0.824253
(1,13,7): (1,12,7) 1.43082 (1,13,6) 0.153835 (1,13,8) -0.419416 (1,14,7) -0.736142
(1,13,8): (1,12,8) 0.804021 (1,13,7) 0.419416 (1,13,9) -0.378058 (1,14,8) -0.484919
(1,13,9): (1,12,9) 0.377749 (1,13,8) 0.378058 (1,13,10) -0.200962 (1,14,9) -0.271695
(1,13,10): (1,12,10) 0.196753 (1,13,9) 0.200962 (1,14,10) -0.164220
(1,14,1): (1,13,1) 6.546822E-02 (1,14,2) 5.934364E-02 (1,15,1) -3.427369E-02
(1,14,2): (1,13,2) 0.122488 (1,14,1) -5.934364E-02 (1,14,3) 0.124253 (1,15,2) -6.093904E-02
(1,14,3): (1,13,3) 0.255722 (1,14,2) -0.124253 (1,14,4) 0.178744 (1,15,3) -0.119273
(1,14,4): (1,13,4) 0.479324 (1,14,3) -0.178744 (1,14,5) 0.174515 (1,15,4) -0.208096
(1,14,5): (1,13,5) 0.734452 (1,14,4) -0.174515 (1,14,6) 6.881754E-02 (1,15,5) -0.299309
(1,14,6): (1,13,6) 0.824253 (1,14,5) -6.881754E-02 (1,14,7) -6.628976E-02 (1,15,6) -0.334554
(1,14,7): (1,13,7) 0.736142 (1,14,6) 6.628976E-02 (1,14,8) -0.168962 (1,15,7) -0.300242
(1,14,8): (1,13,8) 0.484919 (1,14,7) 0.168962 (1,14,9) -0.165056 (1,15,8) -0.211151
(1,14,9): (1,13,9) 0.271695 (1,14,8) 0.165056 (1,14,10) -9.356225E-02 (1,15,9) -0.127795
(1,14,10): (1,13,10) 0.164220 (1,14,9) 9.356225E-02 (1,15,10) -8.239020E-02
(1,15,1): (1,14,1) 3.427369E-02 (1,15,2) 3.267872E-02
(1,15,2): (1,14,2) 6.093904E-02 (1,15,1) -3.267872E-02 (1,15,3) 6.591580E-02
(1,15,3): (1,14,3) 0.119273 (1,15,2) -6.591580E-02 (1,15,4) 8.994661E-02
(1,15,4): (1,14,4) 0.208096 (1,15,3) -8.994661E-02 (1,15,5) 8.341420E-02
(1,15,5): (1,14,5) 0.299309 (1,15,4) -8.341420E-02 (1,15,6) 3.366438E-02
(1,15,6): (1,14,6) 0.334554 (1,15,5) -3.366438E-02 (1,15,7) -3.206786E-02
(1,15,7): (1,14,7) 0.300242 (1,15,6) 3.206786E-02 (1,15,8) -7.998603E-02
(1,15,8): (1,14,8) 0.211151 (1,15,7) 7.998603E-02 (1,15,9) -8.173804E-02
(1,15,9): (1,14,9) 0.127795 (1,15,8) 8.173804E-02 (1,15,10) -4.817306E-02
(1,15,10): (1,14,10) 8.239020E-02 (1,15,9) 4.817306E-02

 WEL PACKAGE (WEL-1) FLOW RATES   PERIOD      2   STEP       61
 ----------------------------------------------------------------------------------------
   NUMBER   CELLID                    RATE       NAME                                    
 ----------------------------------------------------------------------------------------
     1      (1,8,6)              -208.18637      WEL                                     
 ----------------------------------------------------------------------------------------




 DRN PACKAGE (DRN-0) FLOW RATES   PERIOD      2   STEP       61
 ----------------------------------------------------------------------------------------
   NUMBER   CELLID                    RATE       NAME                                    
 ----------------------------------------------------------------------------------------
     1      (1,1,1)               0.0000000      SURF                                    
     2      (1,1,2)               0.0000000      SURF                                    
     3      (1,1,3)               0.0000000      SURF                                    
     4      (1,1,4)               0.0000000      SURF                                    
     5      (1,1,5)               0.0000000      SURF                                    
     6      (1,1,6)               0.0000000      SURF                                    
     7      (1,1,7)               0.0000000      SURF                                    
     8      (1,1,8)               0.0000000      SURF                                    
     9      (1,1,9)               0.0000000      SURF                                    
     10     (1,1,10)              0.0000000      SURF                                    
     11     (1,2,1)               0.0000000      SURF                                    
     12     (1,2,2)               0.0000000      SURF                                    
     13     (1,2,3)               0.0000000      SURF                                    
     14     (1,2,4)               0.0000000      SURF                                    
     15     (1,2,5)               0.0000000      SURF                                    
     16     (1,2,6)               0.0000000      SURF                                    
     17     (1,2,7)               0.0000000      SURF                                    
     18     (1,2,8)               0.0000000      SURF                                    
     19     (1,2,9)               0.0000000      SURF                                    
     20     (1,2,10)              0.0000000      SURF                                    
     21     (1,3,1)               0.0000000      SURF                                    
     22     (1,3,2)               0.0000000      SURF                                    
     23     (1,3,3)               0.0000000      SURF                                    
     24     (1,3,4)               0.0000000      SURF                                    
     25     (1,3,5)               0.0000000      SURF                                    
     26     (1,3,6)               0.0000000      SURF                                    
     27     (1,3,7)               0.0000000      SURF                                    
     28     (1,3,8)               0.0000000      SURF                                    
     29     (1,3,9)               0.0000000      SURF                                    
     30     (1,3,10)              0.0000000      SURF                                    
     31     (1,4,1)               0.0000000      SURF                                    
     32     (1,4,2)               0.0000000      SURF                                    
     33     (1,4,3)               0.0000000      SURF                                    
     34     (1,4,4)               0.0000000      SURF                                    
     35     (1,4,5)               0.0000000      SURF                                    
     36     (1,4,6)               0.0000000      SURF                                    
     37     (1,4,7)               0.0000000      SURF                                    
     38     (1,4,8)               0.0000000      SURF                                    
     39     (1,4,9)               0.0000000      SURF                                    
     40     (1,4,10)              0.0000000      SURF                                    
     41     (1,5,1)               0.0000000      SURF                                    
     42     (1,5,2)               0.0000000      SURF                                    
     43     (1,5,3)               0.0000000      SURF                                    
     44     (1,5,4)               0.0000000      SURF                                    
     45     (1,5,5)               0.0000000      SURF                                    
     46     (1,5,6)               0.0000000      SURF                                    
     47     (1,5,7)               0.0000000      SURF                                    
     48     (1,5,8)               0.0000000      SURF                                    
     49     (1,5,9)               0.0000000      SURF                                    
     50     (1,5,10)              0.0000000      SURF                                    
     51     (1,6,1)               0.0000000      SURF                                    
     52     (1,6,2)               0.0000000      SURF                                    
     53     (1,6,3)               0.0000000      SURF                                    
     54     (1,6,4)               0.0000000      SURF                                    
     55     (1,6,5)               0.0000000      SURF                                    
     56     (1,6,6)               0.0000000      SURF                                    
     57     (1,6,7)              -3.33384378E-07 SURF                                    
     58     (1,6,8)               0.0000000      SURF                                    
     59     (1,6,9)               0.0000000      SURF                                    
     60     (1,6,10)              0.0000000      SURF                                    
     61     (1,7,1)               0.0000000      SURF                                    
     62     (1,7,2)               0.0000000      SURF                                    
     63     (1,7,3)               0.0000000      SURF                                    
     64     (1,7,4)               0.0000000      SURF                                    
     65     (1,7,5)               0.0000000      SURF                                    
     66     (1,7,6)               0.0000000      SURF                                    
     67     (1,7,7)               0.0000000      SURF                                    
     68     (1,7,8)               0.0000000      SURF                                    
     69     (1,7,9)               0.0000000      SURF                                    
     70     (1,7,10)              0.0000000      SURF                                    
     71     (1,8,1)               0.0000000      SURF                                    
     72     (1,8,2)               0.0000000      SURF                                    
     73     (1,8,3)               0.0000000      SURF                                    
     74     (1,8,4)               0.0000000      SURF                                    
     75     (1,8,5)               0.0000000      SURF                                    
     76     (1,8,6)               0.0000000      SURF                                    
     77     (1,8,7)               0.0000000      SURF                                    
     78     (1,8,8)               0.0000000      SURF                                    
     79     (1,8,9)               0.0000000      SURF                                    
     80     (1,8,10)              0.0000000      SURF                                    
     81     (1,9,1)               0.0000000      SURF                                    
     82     (1,9,2)               0.0000000      SURF                                    
     83     (1,9,3)               0.0000000      SURF                                    
     84     (1,9,4)               0.0000000      SURF                                    
     85     (1,9,5)               0.0000000      SURF                                    
     86     (1,9,6)               0.0000000      SURF                                    
     87     (1,9,7)               0.0000000      SURF                                    
     88     (1,9,8)               0.0000000      SURF                                    
     89     (1,9,9)               0.0000000      SURF                                    
     90     (1,9,10)              0.0000000      SURF                                    
     91     (1,10,1)              0.0000000      SURF                                    
     92     (1,10,2)              0.0000000      SURF                                    
     93     (1,10,3)              0.0000000      SURF                                    
     94     (1,10,4)              0.0000000      SURF                                    
     95     (1,10,5)              0.0000000      SURF                                    
     96     (1,10,6)              0.0000000      SURF                                    
     97     (1,10,7)              0.0000000      SURF                                    
     98     (1,10,8)              0.0000000      SURF                                    
     99     (1,10,9)              0.0000000      SURF                                    
    100     (1,10,10)             0.0000000      SURF                                    
    101     (1,11,1)              0.0000000      SURF                                    
    102     (1,11,2)              0.0000000      SURF                                    
    103     (1,11,3)              0.0000000      SURF                                    
    104     (1,11,4)              0.0000000      SURF                                    
    105     (1,11,5)              0.0000000      SURF                                    
    106     (1,11,6)              0.0000000      SURF                                    
    107     (1,11,7)              0.0000000      SURF                                    
    108     (1,11,8)              0.0000000      SURF                                    
    109     (1,11,9)              0.0000000      SURF                                    
    110     (1,11,10)             0.0000000      SURF                                    
    111     (1,12,1)              0.0000000      SURF                                    
    112     (1,12,2)              0.0000000      SURF                                    
    113     (1,12,3)              0.0000000      SURF                                    
    114     (1,12,4)              0.0000000      SURF                                    
    115     (1,12,5)              0.0000000      SURF                                    
    116     (1,12,6)              0.0000000      SURF                                    
    117     (1,12,7)              0.0000000      SURF                                    
    118     (1,12,8)              0.0000000      SURF                                    
    119     (1,12,9)              0.0000000      SURF                                    
    120     (1,12,10)             0.0000000      SURF                                    
    121     (1,13,1)              0.0000000      SURF                                    
    122     (1,13,2)              0.0000000      SURF                                    
    123     (1,13,3)              0.0000000      SURF                                    
    124     (1,13,4)              0.0000000      SURF                                    
    125     (1,13,5)              0.0000000      SURF                                    
    126     (1,13,6)              0.0000000      SURF                                    
    127     (1,13,7)              0.0000000      SURF                                    
    128     (1,13,8)              0.0000000      SURF                                    
    129     (1,13,9)              0.0000000      SURF                                    
    130     (1,13,10)             0.0000000      SURF                                    
    131     (1,14,1)              0.0000000      SURF                                    
    132     (1,14,2)              0.0000000      SURF                                    
    133     (1,14,3)              0.0000000      SURF                                    
    134     (1,14,4)              0.0000000      SURF                                    
    135     (1,14,5)              0.0000000      SURF                                    
    136     (1,14,6)              0.0000000      SURF                                    
    137     (1,14,7)              0.0000000      SURF                                    
    138     (1,14,8)              0.0000000      SURF                                    
    139     (1,14,9)              0.0000000      SURF                                    
    140     (1,14,10)             0.0000000      SURF                                    
    141     (1,15,1)              0.0000000      SURF                                    
    142     (1,15,2)              0.0000000      SURF                                    
    143     (1,15,3)              0.0000000      SURF                                    
    144     (1,15,4)              0.0000000      SURF                                    
    145     (1,15,5)              0.0000000      SURF                                    
    146     (1,15,6)              0.0000000      SURF                                    
    147     (1,15,7)              0.0000000      SURF                                    
    148     (1,15,8)              0.0000000      SURF                                    
    149     (1,15,9)              0.0000000      SURF                                    
    150     (1,15,10)             0.0000000      SURF                                    
 ----------------------------------------------------------------------------------------




 API PACKAGE (MAR) FLOW RATES   PERIOD      2   STEP       61
 -----------------------------------------------
   NUMBER   CELLID                    RATE      
 -----------------------------------------------
     1      (1,6,5)               35.473831     
     2      (1,6,6)               35.473831     
     3      (1,6,7)               35.473831     
     4      (1,10,5)              33.921624     
     5      (1,10,6)              33.921624     
     6      (1,10,7)              33.921624     
 -----------------------------------------------



1
  HEAD IN LAYER   1 AT END OF TIME STEP  61 IN STRESS PERIOD    2
  ---------------------------------------------------------------------------

            1           2           3           4           5           6           7           8           9          10
 ........................................................................................................................
   1   6.5104E-03  1.0261E-02  1.7695E-02  2.7644E-02  3.6736E-02  4.0402E-02  3.6955E-02  2.8310E-02  1.9384E-02  1.4068E-02
   2   1.0490E-02  1.7069E-02  3.0582E-02  4.9616E-02  6.7912E-02  7.5123E-02  6.8249E-02  5.0655E-02  3.3271E-02  2.3300E-02
   3   1.7977E-02  3.0482E-02  5.7579E-02  9.8953E-02  0.1424      0.1584      0.1429      0.1007      6.2108E-02  4.1339E-02
   4   2.6079E-02  4.6517E-02  9.4652E-02  0.1787      0.2828      0.3142      0.2836      0.1811      0.1011      6.2500E-02
   5   2.7151E-02  5.1505E-02  0.1182      0.2679      0.5293      0.5685      0.5300      0.2703      0.1247      6.8269E-02
   6   1.0952E-02  2.0771E-02  6.4304E-02  0.2518      0.9996      0.9172       1.000      0.2530      6.7066E-02  2.6899E-02
   7  -2.1630E-02 -5.7194E-02 -0.1597     -0.4010     -0.9251      -2.140     -0.9251     -0.4019     -0.1640     -7.3449E-02
   8  -4.0612E-02 -0.1051     -0.3097     -0.8957      -2.661      -9.241      -2.661     -0.8979     -0.3181     -0.1345    
   9  -2.3861E-02 -5.9845E-02 -0.1629     -0.4050     -0.9326      -2.149     -0.9328     -0.4061     -0.1678     -7.7196E-02
  10   7.1954E-03  1.6237E-02  5.8546E-02  0.2424      0.9675      0.8825      0.9678      0.2431      6.0266E-02  2.0523E-02
  11   2.2887E-02  4.6227E-02  0.1114      0.2596      0.5175      0.5561      0.5180      0.2615      0.1168      6.0867E-02
  12   2.2258E-02  4.1629E-02  8.8131E-02  0.1707      0.2736      0.3046      0.2742      0.1726      9.3512E-02  5.5669E-02
  13   1.5121E-02  2.6726E-02  5.2340E-02  9.2191E-02  0.1345      0.1501      0.1349      9.3542E-02  5.6087E-02  3.6103E-02
  14   8.5837E-03  1.4510E-02  2.6901E-02  4.4696E-02  6.2040E-02  6.8875E-02  6.2291E-02  4.5500E-02  2.9069E-02  1.9740E-02
  15   5.1593E-03  8.4244E-03  1.5006E-02  2.3979E-02  3.2294E-02  3.5648E-02  3.2453E-02  2.4480E-02  1.6326E-02  1.1517E-02

 HEAD WILL BE SAVED ON UNIT 1100 AT END OF TIME STEP   61, STRESS PERIOD    2


  VOLUME BUDGET FOR ENTIRE MODEL AT END OF TIME STEP   61, STRESS PERIOD   2
  ---------------------------------------------------------------------------------------------------

     CUMULATIVE VOLUME      L**3       RATES FOR THIS TIME STEP      L**3/T          PACKAGE NAME    
     ------------------                 ------------------------                     ----------------

           IN:                                      IN:
           ---                                      ---
              STO-SS =          22.9372                STO-SS =       1.0904E-02     STORAGE                          
              STO-SY =       57286.1525                STO-SY =          22.9666     STORAGE                          
                 WEL =           0.0000                   WEL =           0.0000     WEL-1                            
                 DRN =           0.0000                   DRN =           0.0000     DRN-0                            
                 API =      124366.5253                   API =         208.1864     MAR                              
                 CHD =       2.0279E-08                   CHD =           0.0000     CHD_0                            

            TOTAL IN =      181675.6150              TOTAL IN =         231.1638

          OUT:                                     OUT:
          ----                                     ----
              STO-SS =          19.3331                STO-SS =       1.1625E-02     STORAGE                          
              STO-SY =       37720.9502                STO-SY =          22.9659     STORAGE                          
                 WEL =      143935.3315                   WEL =         208.1864     WEL-1                            
                 DRN =       2.0527E-04                   DRN =       3.3338E-07     DRN-0                            
                 API =           0.0000                   API =           0.0000     MAR                              
                 CHD =       2.0705E-08                   CHD =           0.0000     CHD_0                            

           TOTAL OUT =      181675.6150             TOTAL OUT =         231.1638

            IN - OUT =      -1.1700E-06              IN - OUT =       8.5515E-10

 PERCENT DISCREPANCY =          -0.00     PERCENT DISCREPANCY =           0.00




         TIME SUMMARY AT END OF TIME STEP   61 IN STRESS PERIOD    2
                    SECONDS     MINUTES      HOURS       DAYS        YEARS
                    -----------------------------------------------------------
   TIME STEP LENGTH 8.64000E+05  14400.      240.00      10.000     2.73785E-02
 STRESS PERIOD TIME 5.27040E+07 8.78400E+05  14640.      610.00      1.6701    
         TOTAL TIME 5.27904E+07 8.79840E+05  14664.      611.00      1.6728    


end timestep


start timestep kper="2" kstp="62" mode="normal"

 UBDSV1 SAVING           STO-SS ON UNIT   1099 AT TIME STEP     62, STRESS PERIOD      2
 UBDSV1 SAVING           STO-SY ON UNIT   1099 AT TIME STEP     62, STRESS PERIOD      2
 UBDSV1 SAVING     FLOW-JA-FACE ON UNIT   1099 AT TIME STEP     62, STRESS PERIOD      2
 UBDSV06 SAVING       DATA-SPDIS IN MODEL GWF              PACKAGE NPF             CONNECTED TO MODEL GWF              PACKAGE NPF              ON UNIT   1099 AT TIME STEP     62, STRESS PERIOD      2
 UBDSV06 SAVING              WEL IN MODEL GWF              PACKAGE GWF             CONNECTED TO MODEL GWF              PACKAGE WEL-1            ON UNIT   1099 AT TIME STEP     62, STRESS PERIOD      2
 UBDSV06 SAVING              DRN IN MODEL GWF              PACKAGE GWF             CONNECTED TO MODEL GWF              PACKAGE DRN-0            ON UNIT   1099 AT TIME STEP     62, STRESS PERIOD      2
 UBDSV06 SAVING              API IN MODEL GWF              PACKAGE GWF             CONNECTED TO MODEL GWF              PACKAGE MAR              ON UNIT   1099 AT TIME STEP     62, STRESS PERIOD      2
 UBDSV06 SAVING              CHD IN MODEL GWF              PACKAGE GWF             CONNECTED TO MODEL GWF              PACKAGE CHD_0            ON UNIT   1099 AT TIME STEP     62, STRESS PERIOD      2

    CALCULATED INTERCELL FLOW FOR PERIOD 2 STEP 62
(1,1,1): (1,1,2) 3.893468E-02 (1,2,1) 4.100004E-02
(1,1,2): (1,1,1) -3.893468E-02 (1,1,3) 7.695378E-02 (1,2,2) 6.969823E-02
(1,1,3): (1,1,2) -7.695378E-02 (1,1,4) 0.102654 (1,2,3) 0.131369
(1,1,4): (1,1,3) -0.102654 (1,1,5) 9.361765E-02 (1,2,4) 0.223629
(1,1,5): (1,1,4) -9.361765E-02 (1,1,6) 3.775760E-02 (1,2,5) 0.317306
(1,1,6): (1,1,5) -3.775760E-02 (1,1,7) -3.537299E-02 (1,2,6) 0.353505
(1,1,7): (1,1,6) 3.537299E-02 (1,1,8) -8.881562E-02 (1,2,7) 0.318563
(1,1,8): (1,1,7) 8.881562E-02 (1,1,9) -9.182003E-02 (1,2,8) 0.227553
(1,1,9): (1,1,8) 9.182003E-02 (1,1,10) -5.474432E-02 (1,2,9) 0.141761
(1,1,10): (1,1,9) 5.474432E-02 (1,2,10) 9.462471E-02
(1,2,1): (1,1,1) -4.100004E-02 (1,2,2) 6.763228E-02 (1,3,1) 7.647024E-02
(1,2,2): (1,1,2) -6.969823E-02 (1,2,1) -6.763228E-02 (1,2,3) 0.138629 (1,3,2) 0.136337
(1,2,3): (1,1,3) -0.131369 (1,2,2) -0.138629 (1,2,4) 0.194888 (1,3,3) 0.273901
(1,2,4): (1,1,4) -0.223629 (1,2,3) -0.194888 (1,2,5) 0.187176 (1,3,4) 0.501435
(1,2,5): (1,1,5) -0.317306 (1,2,4) -0.187176 (1,2,6) 7.385668E-02 (1,3,5) 0.759160
(1,2,6): (1,1,6) -0.353505 (1,2,5) -7.385668E-02 (1,2,7) -7.021799E-02 (1,3,6) 0.849871
(1,2,7): (1,1,7) -0.318563 (1,2,6) 7.021799E-02 (1,2,8) -0.179702 (1,3,7) 0.761405
(1,2,8): (1,1,8) -0.227553 (1,2,7) 0.179702 (1,2,9) -0.177570 (1,3,8) 0.508495
(1,2,9): (1,1,9) -0.141761 (1,2,8) 0.177570 (1,2,10) -0.101862 (1,3,9) 0.292959
(1,2,10): (1,1,10) -9.462471E-02 (1,2,9) 0.101862 (1,3,10) 0.183627
(1,3,1): (1,2,1) -7.647024E-02 (1,3,2) 0.127494 (1,4,1) 8.128478E-02
(1,3,2): (1,2,2) -0.136337 (1,3,1) -0.127494 (1,3,3) 0.276197 (1,4,2) 0.160764
(1,3,3): (1,2,3) -0.273901 (1,3,2) -0.276197 (1,3,4) 0.422246 (1,4,3) 0.373394
(1,3,4): (1,2,4) -0.501435 (1,3,3) -0.422246 (1,3,5) 0.444118 (1,4,4) 0.811044
(1,3,5): (1,2,5) -0.759160 (1,3,4) -0.444118 (1,3,6) 0.163974 (1,4,5) 1.44390
(1,3,6): (1,2,6) -0.849871 (1,3,5) -0.163974 (1,3,7) -0.158099 (1,4,6) 1.60708
(1,3,7): (1,2,7) -0.761405 (1,3,6) 0.158099 (1,3,8) -0.431809 (1,4,7) 1.44613
(1,3,8): (1,2,8) -0.508495 (1,3,7) 0.431809 (1,3,9) -0.392863 (1,4,8) 0.818043
(1,3,9): (1,2,9) -0.292959 (1,3,8) 0.392863 (1,3,10) -0.211106 (1,4,9) 0.392863
(1,3,10): (1,2,10) -0.183627 (1,3,9) 0.211106 (1,4,10) 0.212460
(1,4,1): (1,3,1) -8.128478E-02 (1,4,2) 0.207009 (1,5,1) 7.475373E-03
(1,4,2): (1,3,2) -0.160764 (1,4,1) -0.207009 (1,4,3) 0.489066 (1,5,2) 4.510366E-02
(1,4,3): (1,3,3) -0.373394 (1,4,2) -0.489066 (1,4,4) 0.860102 (1,5,3) 0.230205
(1,4,4): (1,3,4) -0.811044 (1,4,3) -0.860102 (1,4,5) 1.07479 (1,5,4) 0.906469
(1,4,5): (1,3,5) -1.44390 (1,4,4) -1.07479 (1,4,6) 0.325247 (1,5,5) 2.58672
(1,4,6): (1,3,6) -1.60708 (1,4,5) -0.325247 (1,4,7) -0.317155 (1,5,6) 2.68077
(1,4,7): (1,3,7) -1.44613 (1,4,6) 0.317155 (1,4,8) -1.05762 (1,5,7) 2.58691
(1,4,8): (1,3,8) -0.818043 (1,4,7) 1.05762 (1,4,9) -0.818043 (1,5,8) 0.906640
(1,4,9): (1,3,9) -0.392863 (1,4,8) 0.818043 (1,4,10) -0.391506 (1,5,9) 0.230709
(1,4,10): (1,3,10) -0.212460 (1,4,9) 0.391506 (1,5,10) 5.103972E-02
(1,5,1): (1,4,1) -7.475373E-03 (1,5,2) 0.244712 (1,6,1) -0.169312
(1,5,2): (1,4,2) -4.510366E-02 (1,5,1) -0.244712 (1,5,3) 0.674970 (1,6,2) -0.319024
(1,5,3): (1,4,3) -0.230205 (1,5,2) -0.674970 (1,5,4) 1.54041 (1,6,3) -0.560038
(1,5,4): (1,4,4) -0.906469 (1,5,3) -1.54041 (1,5,5) 2.75760 (1,6,4) -0.182825
(1,5,5): (1,4,5) -2.58672 (1,5,4) -2.75760 (1,5,6) 0.417592 (1,6,5) 5.16055
(1,5,6): (1,4,6) -2.68077 (1,5,5) -0.417592 (1,5,7) -0.409309 (1,6,6) 3.79696
(1,5,7): (1,4,7) -2.58691 (1,5,6) 0.409309 (1,5,8) -2.74017 (1,6,7) 5.15672
(1,5,8): (1,4,8) -0.906640 (1,5,7) 2.74017 (1,5,9) -1.49774 (1,6,8) -0.196045
(1,5,9): (1,4,9) -0.230709 (1,5,8) 1.49774 (1,5,10) -0.571772 (1,6,9) -0.600577
(1,5,10): (1,4,10) -5.103972E-02 (1,5,9) 0.571772 (1,6,10) -0.430585
(1,6,1): (1,5,1) 0.169312 (1,6,2) 9.511061E-02 (1,7,1) -0.333733
(1,6,2): (1,5,2) 0.319024 (1,6,1) -9.511061E-02 (1,6,3) 0.433688 (1,7,2) -0.792291
(1,6,3): (1,5,3) 0.560038 (1,6,2) -0.433688 (1,6,4) 1.92259 (1,7,3) -2.27114
(1,6,4): (1,5,4) 0.182825 (1,6,3) -1.92259 (1,6,5) 8.23684 (1,7,4) -6.71598
(1,6,5): (1,5,5) -5.16055 (1,6,4) -8.23684 (1,6,6) -0.900545 (1,7,5) -21.2006
(1,6,6): (1,5,6) -3.79696 (1,6,5) 0.900545 (1,6,7) 0.905180 (1,7,6) -33.4070
(1,6,7): (1,5,7) -5.15672 (1,6,6) -0.905180 (1,6,8) -8.22883 (1,7,7) -21.2072
(1,6,8): (1,5,8) 0.196045 (1,6,7) 8.22883 (1,6,9) -1.90737 (1,7,8) -6.73853
(1,6,9): (1,5,9) 0.600577 (1,6,8) 1.90737 (1,6,10) -0.401826 (1,7,9) -2.34456
(1,6,10): (1,5,10) 0.430585 (1,6,9) 0.401826 (1,7,10) -1.02145
(1,7,1): (1,6,1) 0.333733 (1,7,2) -0.361579 (1,8,1) -0.192688
(1,7,2): (1,6,2) 0.792291 (1,7,1) 0.361579 (1,7,3) -1.02910 (1,8,2) -0.480611
(1,7,3): (1,6,3) 2.27114 (1,7,2) 1.02910 (1,7,4) -2.37995 (1,8,3) -1.48309
(1,7,4): (1,6,4) 6.71598 (1,7,3) 2.37995 (1,7,5) -5.02227 (1,8,4) -4.75741
(1,7,5): (1,6,5) 21.2006 (1,7,4) 5.02227 (1,7,6) -11.0169 (1,8,5) -15.7568
(1,7,6): (1,6,6) 33.4070 (1,7,5) 11.0169 (1,7,7) 11.0158 (1,8,6) -55.7870
(1,7,7): (1,6,7) 21.2072 (1,7,6) -11.0158 (1,7,8) 5.01372 (1,8,7) -15.7603
(1,7,8): (1,6,8) 6.73853 (1,7,7) -5.01372 (1,7,9) 2.34341 (1,8,8) -4.76988
(1,7,9): (1,6,9) 2.34456 (1,7,8) -2.34341 (1,7,10) 0.904286 (1,8,9) -1.52429
(1,7,10): (1,6,10) 1.02145 (1,7,9) -0.904286 (1,8,10) -0.612904
(1,8,1): (1,7,1) 0.192688 (1,8,2) -0.649993 (1,9,1) 0.170529
(1,8,2): (1,7,2) 0.480611 (1,8,1) 0.649993 (1,8,3) -2.03723 (1,9,2) 0.454420
(1,8,3): (1,7,3) 1.48309 (1,8,2) 2.03723 (1,8,4) -5.68574 (1,9,3) 1.45132
(1,8,4): (1,7,4) 4.75741 (1,8,3) 5.68574 (1,8,5) -16.0559 (1,9,4) 4.71449
(1,8,5): (1,7,5) 15.7568 (1,8,4) 16.0559 (1,8,6) -48.2453 (1,9,5) 15.6627
(1,8,6): (1,7,6) 55.7870 (1,8,5) 48.2453 (1,8,7) 48.2382 (1,9,6) 55.6396
(1,8,7): (1,7,7) 15.7603 (1,8,6) -48.2382 (1,8,8) 16.0356 (1,9,7) 15.6648
(1,8,8): (1,7,8) 4.76988 (1,8,7) -16.0356 (1,8,9) 5.61751 (1,9,8) 4.72383
(1,8,9): (1,7,9) 1.52429 (1,8,8) -5.61751 (1,8,10) 1.81841 (1,9,9) 1.48622
(1,8,10): (1,7,10) 0.612904 (1,8,9) -1.81841 (1,9,10) 0.575959
(1,9,1): (1,8,1) -0.170529 (1,9,2) -0.365543 (1,10,1) 0.318324
(1,9,2): (1,8,2) -0.454420 (1,9,1) 0.365543 (1,9,3) -1.03439 (1,10,2) 0.773077
(1,9,3): (1,8,3) -1.45132 (1,9,2) 1.03439 (1,9,4) -2.38975 (1,10,3) 2.24314
(1,9,4): (1,8,4) -4.71449 (1,9,3) 2.38975 (1,9,5) -5.06283 (1,10,4) 6.64714
(1,9,5): (1,8,5) -15.6627 (1,9,4) 5.06283 (1,9,6) -11.0168 (1,10,5) 20.8349
(1,9,6): (1,8,6) -55.6396 (1,9,5) 11.0168 (1,9,7) 11.0144 (1,10,6) 32.9703
(1,9,7): (1,8,7) -15.6648 (1,9,6) -11.0144 (1,9,8) 5.05232 (1,10,7) 20.8406
(1,9,8): (1,8,8) -4.72383 (1,9,7) -5.05232 (1,9,9) 2.34990 (1,10,8) 6.66751
(1,9,9): (1,8,9) -1.48622 (1,9,8) -2.34990 (1,9,10) 0.905052 (1,10,9) 2.31217
(1,9,10): (1,8,10) -0.575959 (1,9,9) -0.905052 (1,10,10) 0.994529
(1,10,1): (1,9,1) -0.318324 (1,10,2) 8.744661E-02 (1,11,1) 0.164007
(1,10,2): (1,9,2) -0.773077 (1,10,1) -8.744661E-02 (1,10,3) 0.420073 (1,11,2) 0.311413
(1,10,3): (1,9,3) -2.24314 (1,10,2) -0.420073 (1,10,4) 1.87474 (1,11,3) 0.551071
(1,10,4): (1,9,4) -6.64714 (1,10,3) -1.87474 (1,10,5) 7.93094 (1,11,4) 0.201443
(1,10,5): (1,9,5) -20.8349 (1,10,4) -7.93094 (1,10,6) -0.933282 (1,11,5) -4.89118
(1,10,6): (1,9,6) -32.9703 (1,10,5) 0.933282 (1,10,7) 0.935937 (1,11,6) -3.50598
(1,10,7): (1,9,7) -20.8406 (1,10,6) -0.935937 (1,10,8) -7.92622 (1,11,7) -4.88760
(1,10,8): (1,9,8) -6.66751 (1,10,7) 7.92622 (1,10,9) -1.86508 (1,11,8) 0.213973
(1,10,9): (1,9,9) -2.31217 (1,10,8) 1.86508 (1,10,10) -0.396034 (1,11,9) 0.590112
(1,10,10): (1,9,10) -0.994529 (1,10,9) 0.396034 (1,11,10) 0.419953
(1,11,1): (1,10,1) -0.164007 (1,11,2) 0.234741 (1,12,1) -3.270566E-03
(1,11,2): (1,10,2) -0.311413 (1,11,1) -0.234741 (1,11,3) 0.659984 (1,12,2) -4.139845E-02
(1,11,3): (1,10,3) -0.551071 (1,11,2) -0.659984 (1,11,4) 1.52063 (1,12,3) -0.227863
(1,11,4): (1,10,4) -0.201443 (1,11,3) -1.52063 (1,11,5) 2.70957 (1,12,4) -0.900574
(1,11,5): (1,10,5) 4.89118 (1,11,4) -2.70957 (1,11,6) 0.408704 (1,12,5) -2.54707
(1,11,6): (1,10,6) 3.50598 (1,11,5) -0.408704 (1,11,7) -0.402616 (1,12,6) -2.63649
(1,11,7): (1,10,7) 4.88760 (1,11,6) 0.402616 (1,11,8) -2.69576 (1,12,7) -2.54696
(1,11,8): (1,10,8) -0.213973 (1,11,7) 2.69576 (1,11,9) -1.48430 (1,12,8) -0.900085
(1,11,9): (1,10,9) -0.590112 (1,11,8) 1.48430 (1,11,10) -0.566154 (1,12,9) -0.227143
(1,11,10): (1,10,10) -0.419953 (1,11,9) 0.566154 (1,12,10) -4.564447E-02
(1,12,1): (1,11,1) 3.270566E-03 (1,12,2) 0.196540 (1,13,1) -7.176695E-02
(1,12,2): (1,11,2) 4.139845E-02 (1,12,1) -0.196540 (1,12,3) 0.472733 (1,13,2) -0.149661
(1,12,3): (1,11,3) 0.227863 (1,12,2) -0.472733 (1,12,4) 0.843974 (1,13,3) -0.360650
(1,12,4): (1,11,4) 0.900574 (1,12,3) -0.843974 (1,12,5) 1.06069 (1,13,4) -0.797505
(1,12,5): (1,11,5) 2.54707 (1,12,4) -1.06069 (1,12,6) 0.320884 (1,13,5) -1.42757
(1,12,6): (1,11,6) 2.63649 (1,12,5) -0.320884 (1,12,7) -0.314699 (1,13,6) -1.59069
(1,12,7): (1,11,7) 2.54696 (1,12,6) 0.314699 (1,12,8) -1.04670 (1,13,7) -1.42928
(1,12,8): (1,11,8) 0.900085 (1,12,7) 1.04670 (1,12,9) -0.807648 (1,13,8) -0.803173
(1,12,9): (1,11,9) 0.227143 (1,12,8) 0.807648 (1,12,10) -0.384055 (1,13,9) -0.377415
(1,12,10): (1,11,10) 4.564447E-02 (1,12,9) 0.384055 (1,13,10) -0.196765
(1,13,1): (1,12,1) 7.176695E-02 (1,13,2) 0.118610 (1,14,1) -6.700735E-02
(1,13,2): (1,12,2) 0.149661 (1,13,1) -0.118610 (1,13,3) 0.261512 (1,14,2) -0.124491
(1,13,3): (1,12,3) 0.360650 (1,13,2) -0.261512 (1,13,4) 0.406924 (1,14,3) -0.258541
(1,13,4): (1,12,4) 0.797505 (1,13,3) -0.406924 (1,13,5) 0.432785 (1,14,4) -0.483104
(1,13,5): (1,12,5) 1.42757 (1,13,4) -0.432785 (1,13,6) 0.159665 (1,14,5) -0.739017
(1,13,6): (1,12,6) 1.59069 (1,13,5) -0.159665 (1,13,7) -0.155178 (1,14,6) -0.829185
(1,13,7): (1,12,7) 1.42928 (1,13,6) 0.155178 (1,13,8) -0.422827 (1,14,7) -0.740784
(1,13,8): (1,12,8) 0.803173 (1,13,7) 0.422827 (1,13,9) -0.381871 (1,14,8) -0.488900
(1,13,9): (1,12,9) 0.377415 (1,13,8) 0.381871 (1,13,10) -0.203393 (1,14,9) -0.274942
(1,13,10): (1,12,10) 0.196765 (1,13,9) 0.203393 (1,14,10) -0.167008
(1,14,1): (1,13,1) 6.700735E-02 (1,14,2) 6.112936E-02 (1,15,1) -3.543648E-02
(1,14,2): (1,13,2) 0.124491 (1,14,1) -6.112936E-02 (1,14,3) 0.127458 (1,15,2) -6.251705E-02
(1,14,3): (1,13,3) 0.258541 (1,14,2) -0.127458 (1,14,4) 0.182528 (1,15,3) -0.121587
(1,14,4): (1,13,4) 0.483104 (1,14,3) -0.182528 (1,14,5) 0.177628 (1,15,4) -0.211272
(1,14,5): (1,13,5) 0.739017 (1,14,4) -0.177628 (1,14,6) 7.007568E-02 (1,15,5) -0.303193
(1,14,6): (1,13,6) 0.829185 (1,14,5) -7.007568E-02 (1,14,7) -6.734793E-02 (1,15,6) -0.338730
(1,14,7): (1,13,7) 0.740784 (1,14,6) 6.734793E-02 (1,14,8) -0.171717 (1,15,7) -0.304179
(1,14,8): (1,13,8) 0.488900 (1,14,7) 0.171717 (1,14,9) -0.168136 (1,15,8) -0.214471
(1,14,9): (1,13,9) 0.274942 (1,14,8) 0.168136 (1,14,10) -9.553510E-02 (1,15,9) -0.130428
(1,14,10): (1,13,10) 0.167008 (1,14,9) 9.553510E-02 (1,15,10) -8.458428E-02
(1,15,1): (1,14,1) 3.543648E-02 (1,15,2) 3.404916E-02
(1,15,2): (1,14,2) 6.251705E-02 (1,15,1) -3.404916E-02 (1,15,3) 6.838424E-02
(1,15,3): (1,14,3) 0.121587 (1,15,2) -6.838424E-02 (1,15,4) 9.286913E-02
(1,15,4): (1,14,4) 0.211272 (1,15,3) -9.286913E-02 (1,15,5) 8.582056E-02
(1,15,5): (1,14,5) 0.303193 (1,15,4) -8.582056E-02 (1,15,6) 3.463224E-02
(1,15,6): (1,14,6) 0.338730 (1,15,5) -3.463224E-02 (1,15,7) -3.288824E-02
(1,15,7): (1,14,7) 0.304179 (1,15,6) 3.288824E-02 (1,15,8) -8.212607E-02
(1,15,8): (1,14,8) 0.214471 (1,15,7) 8.212607E-02 (1,15,9) -8.413215E-02
(1,15,9): (1,14,9) 0.130428 (1,15,8) 8.413215E-02 (1,15,10) -4.970698E-02
(1,15,10): (1,14,10) 8.458428E-02 (1,15,9) 4.970698E-02

 WEL PACKAGE (WEL-1) FLOW RATES   PERIOD      2   STEP       62
 ----------------------------------------------------------------------------------------
   NUMBER   CELLID                    RATE       NAME                                    
 ----------------------------------------------------------------------------------------
     1      (1,8,6)              -208.01733      WEL                                     
 ----------------------------------------------------------------------------------------




 DRN PACKAGE (DRN-0) FLOW RATES   PERIOD      2   STEP       62
 ----------------------------------------------------------------------------------------
   NUMBER   CELLID                    RATE       NAME                                    
 ----------------------------------------------------------------------------------------
     1      (1,1,1)               0.0000000      SURF                                    
     2      (1,1,2)               0.0000000      SURF                                    
     3      (1,1,3)               0.0000000      SURF                                    
     4      (1,1,4)               0.0000000      SURF                                    
     5      (1,1,5)               0.0000000      SURF                                    
     6      (1,1,6)               0.0000000      SURF                                    
     7      (1,1,7)               0.0000000      SURF                                    
     8      (1,1,8)               0.0000000      SURF                                    
     9      (1,1,9)               0.0000000      SURF                                    
     10     (1,1,10)              0.0000000      SURF                                    
     11     (1,2,1)               0.0000000      SURF                                    
     12     (1,2,2)               0.0000000      SURF                                    
     13     (1,2,3)               0.0000000      SURF                                    
     14     (1,2,4)               0.0000000      SURF                                    
     15     (1,2,5)               0.0000000      SURF                                    
     16     (1,2,6)               0.0000000      SURF                                    
     17     (1,2,7)               0.0000000      SURF                                    
     18     (1,2,8)               0.0000000      SURF                                    
     19     (1,2,9)               0.0000000      SURF                                    
     20     (1,2,10)              0.0000000      SURF                                    
     21     (1,3,1)               0.0000000      SURF                                    
     22     (1,3,2)               0.0000000      SURF                                    
     23     (1,3,3)               0.0000000      SURF                                    
     24     (1,3,4)               0.0000000      SURF                                    
     25     (1,3,5)               0.0000000      SURF                                    
     26     (1,3,6)               0.0000000      SURF                                    
     27     (1,3,7)               0.0000000      SURF                                    
     28     (1,3,8)               0.0000000      SURF                                    
     29     (1,3,9)               0.0000000      SURF                                    
     30     (1,3,10)              0.0000000      SURF                                    
     31     (1,4,1)               0.0000000      SURF                                    
     32     (1,4,2)               0.0000000      SURF                                    
     33     (1,4,3)               0.0000000      SURF                                    
     34     (1,4,4)               0.0000000      SURF                                    
     35     (1,4,5)               0.0000000      SURF                                    
     36     (1,4,6)               0.0000000      SURF                                    
     37     (1,4,7)               0.0000000      SURF                                    
     38     (1,4,8)               0.0000000      SURF                                    
     39     (1,4,9)               0.0000000      SURF                                    
     40     (1,4,10)              0.0000000      SURF                                    
     41     (1,5,1)               0.0000000      SURF                                    
     42     (1,5,2)               0.0000000      SURF                                    
     43     (1,5,3)               0.0000000      SURF                                    
     44     (1,5,4)               0.0000000      SURF                                    
     45     (1,5,5)               0.0000000      SURF                                    
     46     (1,5,6)               0.0000000      SURF                                    
     47     (1,5,7)               0.0000000      SURF                                    
     48     (1,5,8)               0.0000000      SURF                                    
     49     (1,5,9)               0.0000000      SURF                                    
     50     (1,5,10)              0.0000000      SURF                                    
     51     (1,6,1)               0.0000000      SURF                                    
     52     (1,6,2)               0.0000000      SURF                                    
     53     (1,6,3)               0.0000000      SURF                                    
     54     (1,6,4)               0.0000000      SURF                                    
     55     (1,6,5)               0.0000000      SURF                                    
     56     (1,6,6)               0.0000000      SURF                                    
     57     (1,6,7)              -3.32089257E-07 SURF                                    
     58     (1,6,8)               0.0000000      SURF                                    
     59     (1,6,9)               0.0000000      SURF                                    
     60     (1,6,10)              0.0000000      SURF                                    
     61     (1,7,1)               0.0000000      SURF                                    
     62     (1,7,2)               0.0000000      SURF                                    
     63     (1,7,3)               0.0000000      SURF                                    
     64     (1,7,4)               0.0000000      SURF                                    
     65     (1,7,5)               0.0000000      SURF                                    
     66     (1,7,6)               0.0000000      SURF                                    
     67     (1,7,7)               0.0000000      SURF                                    
     68     (1,7,8)               0.0000000      SURF                                    
     69     (1,7,9)               0.0000000      SURF                                    
     70     (1,7,10)              0.0000000      SURF                                    
     71     (1,8,1)               0.0000000      SURF                                    
     72     (1,8,2)               0.0000000      SURF                                    
     73     (1,8,3)               0.0000000      SURF                                    
     74     (1,8,4)               0.0000000      SURF                                    
     75     (1,8,5)               0.0000000      SURF                                    
     76     (1,8,6)               0.0000000      SURF                                    
     77     (1,8,7)               0.0000000      SURF                                    
     78     (1,8,8)               0.0000000      SURF                                    
     79     (1,8,9)               0.0000000      SURF                                    
     80     (1,8,10)              0.0000000      SURF                                    
     81     (1,9,1)               0.0000000      SURF                                    
     82     (1,9,2)               0.0000000      SURF                                    
     83     (1,9,3)               0.0000000      SURF                                    
     84     (1,9,4)               0.0000000      SURF                                    
     85     (1,9,5)               0.0000000      SURF                                    
     86     (1,9,6)               0.0000000      SURF                                    
     87     (1,9,7)               0.0000000      SURF                                    
     88     (1,9,8)               0.0000000      SURF                                    
     89     (1,9,9)               0.0000000      SURF                                    
     90     (1,9,10)              0.0000000      SURF                                    
     91     (1,10,1)              0.0000000      SURF                                    
     92     (1,10,2)              0.0000000      SURF                                    
     93     (1,10,3)              0.0000000      SURF                                    
     94     (1,10,4)              0.0000000      SURF                                    
     95     (1,10,5)              0.0000000      SURF                                    
     96     (1,10,6)              0.0000000      SURF                                    
     97     (1,10,7)              0.0000000      SURF                                    
     98     (1,10,8)              0.0000000      SURF                                    
     99     (1,10,9)              0.0000000      SURF                                    
    100     (1,10,10)             0.0000000      SURF                                    
    101     (1,11,1)              0.0000000      SURF                                    
    102     (1,11,2)              0.0000000      SURF                                    
    103     (1,11,3)              0.0000000      SURF                                    
    104     (1,11,4)              0.0000000      SURF                                    
    105     (1,11,5)              0.0000000      SURF                                    
    106     (1,11,6)              0.0000000      SURF                                    
    107     (1,11,7)              0.0000000      SURF                                    
    108     (1,11,8)              0.0000000      SURF                                    
    109     (1,11,9)              0.0000000      SURF                                    
    110     (1,11,10)             0.0000000      SURF                                    
    111     (1,12,1)              0.0000000      SURF                                    
    112     (1,12,2)              0.0000000      SURF                                    
    113     (1,12,3)              0.0000000      SURF                                    
    114     (1,12,4)              0.0000000      SURF                                    
    115     (1,12,5)              0.0000000      SURF                                    
    116     (1,12,6)              0.0000000      SURF                                    
    117     (1,12,7)              0.0000000      SURF                                    
    118     (1,12,8)              0.0000000      SURF                                    
    119     (1,12,9)              0.0000000      SURF                                    
    120     (1,12,10)             0.0000000      SURF                                    
    121     (1,13,1)              0.0000000      SURF                                    
    122     (1,13,2)              0.0000000      SURF                                    
    123     (1,13,3)              0.0000000      SURF                                    
    124     (1,13,4)              0.0000000      SURF                                    
    125     (1,13,5)              0.0000000      SURF                                    
    126     (1,13,6)              0.0000000      SURF                                    
    127     (1,13,7)              0.0000000      SURF                                    
    128     (1,13,8)              0.0000000      SURF                                    
    129     (1,13,9)              0.0000000      SURF                                    
    130     (1,13,10)             0.0000000      SURF                                    
    131     (1,14,1)              0.0000000      SURF                                    
    132     (1,14,2)              0.0000000      SURF                                    
    133     (1,14,3)              0.0000000      SURF                                    
    134     (1,14,4)              0.0000000      SURF                                    
    135     (1,14,5)              0.0000000      SURF                                    
    136     (1,14,6)              0.0000000      SURF                                    
    137     (1,14,7)              0.0000000      SURF                                    
    138     (1,14,8)              0.0000000      SURF                                    
    139     (1,14,9)              0.0000000      SURF                                    
    140     (1,14,10)             0.0000000      SURF                                    
    141     (1,15,1)              0.0000000      SURF                                    
    142     (1,15,2)              0.0000000      SURF                                    
    143     (1,15,3)              0.0000000      SURF                                    
    144     (1,15,4)              0.0000000      SURF                                    
    145     (1,15,5)              0.0000000      SURF                                    
    146     (1,15,6)              0.0000000      SURF                                    
    147     (1,15,7)              0.0000000      SURF                                    
    148     (1,15,8)              0.0000000      SURF                                    
    149     (1,15,9)              0.0000000      SURF                                    
    150     (1,15,10)             0.0000000      SURF                                    
 ----------------------------------------------------------------------------------------




 API PACKAGE (MAR) FLOW RATES   PERIOD      2   STEP       62
 -----------------------------------------------
   NUMBER   CELLID                    RATE      
 -----------------------------------------------
     1      (1,6,5)               35.497890     
     2      (1,6,6)               35.497890     
     3      (1,6,7)               35.497890     
     4      (1,10,5)              33.841220     
     5      (1,10,6)              33.841220     
     6      (1,10,7)              33.841220     
 -----------------------------------------------



1
  HEAD IN LAYER   1 AT END OF TIME STEP  62 IN STRESS PERIOD    2
  ---------------------------------------------------------------------------

            1           2           3           4           5           6           7           8           9          10
 ........................................................................................................................
   1   6.9099E-03  1.0799E-02  1.8480E-02  2.8716E-02  3.8043E-02  4.1803E-02  3.8280E-02  2.9432E-02  2.0277E-02  1.4814E-02
   2   1.1005E-02  1.7757E-02  3.1576E-02  5.0966E-02  6.9554E-02  7.6883E-02  6.9915E-02  5.2070E-02  3.4405E-02  2.4254E-02
   3   1.8638E-02  3.1348E-02  5.8806E-02  0.1006      0.1444      0.1605      0.1450      0.1024      6.3516E-02  4.2539E-02
   4   2.6745E-02  4.7348E-02  9.5791E-02  0.1803      0.2848      0.3163      0.2856      0.1827      0.1024      6.3650E-02
   5   2.7490E-02  5.1835E-02  0.1185      0.2686      0.5304      0.5699      0.5312      0.2710      0.1252      6.8719E-02
   6   1.0606E-02  2.0098E-02  6.3194E-02  0.2507      0.9996      0.9177       1.000      0.2519      6.5874E-02  2.5955E-02
   7  -2.2732E-02 -5.8973E-02 -0.1625     -0.4044     -0.9278      -2.142     -0.9279     -0.4054     -0.1670     -7.5926E-02
   8  -4.2045E-02 -0.1073     -0.3133     -0.9002      -2.665      -9.242      -2.665     -0.9025     -0.3221     -0.1377    
   9  -2.4949E-02 -6.1595E-02 -0.1657     -0.4087     -0.9365      -2.152     -0.9368     -0.4099     -0.1709     -7.9627E-02
  10   6.8612E-03  1.5592E-02  5.7360E-02  0.2404      0.9638      0.8787      0.9640      0.2411      5.9002E-02  1.9631E-02
  11   2.3224E-02  4.6589E-02  0.1119      0.2601      0.5177      0.5564      0.5183      0.2620      0.1173      6.1370E-02
  12   2.2898E-02  4.2468E-02  8.9323E-02  0.1723      0.2755      0.3066      0.2761      0.1743      9.4878E-02  5.6833E-02
  13   1.5737E-02  2.7566E-02  5.3577E-02  9.3891E-02  0.1366      0.1523      0.1370      9.5317E-02  5.7491E-02  3.7268E-02
  14   9.0470E-03  1.5151E-02  2.7861E-02  4.6030E-02  6.3681E-02  7.0639E-02  6.3952E-02  4.6889E-02  3.0154E-02  2.0629E-02
  15   5.5066E-03  8.9085E-03  1.5736E-02  2.5000E-02  3.3553E-02  3.7004E-02  3.3727E-02  2.5542E-02  1.7150E-02  1.2188E-02

 HEAD WILL BE SAVED ON UNIT 1100 AT END OF TIME STEP   62, STRESS PERIOD    2


  VOLUME BUDGET FOR ENTIRE MODEL AT END OF TIME STEP   62, STRESS PERIOD   2
  ---------------------------------------------------------------------------------------------------

     CUMULATIVE VOLUME      L**3       RATES FOR THIS TIME STEP      L**3/T          PACKAGE NAME    
     ------------------                 ------------------------                     ----------------

           IN:                                      IN:
           ---                                      ---
              STO-SS =          23.0445                STO-SS =       1.0731E-02     STORAGE                          
              STO-SY =       57511.9279                STO-SY =          22.5775     STORAGE                          
                 WEL =           0.0000                   WEL =           0.0000     WEL-1                            
                 DRN =           0.0000                   DRN =           0.0000     DRN-0                            
                 API =      126446.6986                   API =         208.0173     MAR                              
                 CHD =       2.0279E-08                   CHD =           0.0000     CHD_0                            

            TOTAL IN =      183981.6710              TOTAL IN =         230.6056

          OUT:                                     OUT:
          ----                                     ----
              STO-SS =          19.4474                STO-SS =       1.1427E-02     STORAGE                          
              STO-SY =       37946.7186                STO-SY =          22.5768     STORAGE                          
                 WEL =      146015.5048                   WEL =         208.0173     WEL-1                            
                 DRN =       2.0859E-04                   DRN =       3.3209E-07     DRN-0                            
                 API =           0.0000                   API =           0.0000     MAR                              
                 CHD =       2.0705E-08                   CHD =           0.0000     CHD_0                            

           TOTAL OUT =      183981.6710             TOTAL OUT =         230.6056

            IN - OUT =      -1.1613E-06              IN - OUT =       8.6831E-10

 PERCENT DISCREPANCY =          -0.00     PERCENT DISCREPANCY =           0.00




         TIME SUMMARY AT END OF TIME STEP   62 IN STRESS PERIOD    2
                    SECONDS     MINUTES      HOURS       DAYS        YEARS
                    -----------------------------------------------------------
   TIME STEP LENGTH 8.64000E+05  14400.      240.00      10.000     2.73785E-02
 STRESS PERIOD TIME 5.35680E+07 8.92800E+05  14880.      620.00      1.6975    
         TOTAL TIME 5.36544E+07 8.94240E+05  14904.      621.00      1.7002    


end timestep


start timestep kper="2" kstp="63" mode="normal"

 UBDSV1 SAVING           STO-SS ON UNIT   1099 AT TIME STEP     63, STRESS PERIOD      2
 UBDSV1 SAVING           STO-SY ON UNIT   1099 AT TIME STEP     63, STRESS PERIOD      2
 UBDSV1 SAVING     FLOW-JA-FACE ON UNIT   1099 AT TIME STEP     63, STRESS PERIOD      2
 UBDSV06 SAVING       DATA-SPDIS IN MODEL GWF              PACKAGE NPF             CONNECTED TO MODEL GWF              PACKAGE NPF              ON UNIT   1099 AT TIME STEP     63, STRESS PERIOD      2
 UBDSV06 SAVING              WEL IN MODEL GWF              PACKAGE GWF             CONNECTED TO MODEL GWF              PACKAGE WEL-1            ON UNIT   1099 AT TIME STEP     63, STRESS PERIOD      2
 UBDSV06 SAVING              DRN IN MODEL GWF              PACKAGE GWF             CONNECTED TO MODEL GWF              PACKAGE DRN-0            ON UNIT   1099 AT TIME STEP     63, STRESS PERIOD      2
 UBDSV06 SAVING              API IN MODEL GWF              PACKAGE GWF             CONNECTED TO MODEL GWF              PACKAGE MAR              ON UNIT   1099 AT TIME STEP     63, STRESS PERIOD      2
 UBDSV06 SAVING              CHD IN MODEL GWF              PACKAGE GWF             CONNECTED TO MODEL GWF              PACKAGE CHD_0            ON UNIT   1099 AT TIME STEP     63, STRESS PERIOD      2

    CALCULATED INTERCELL FLOW FOR PERIOD 2 STEP 63
(1,1,1): (1,1,2) 4.032719E-02 (1,2,1) 4.213374E-02
(1,1,2): (1,1,1) -4.032719E-02 (1,1,3) 7.942576E-02 (1,2,2) 7.115205E-02
(1,1,3): (1,1,2) -7.942576E-02 (1,1,4) 0.105535 (1,2,3) 0.133388
(1,1,4): (1,1,3) -0.105535 (1,1,5) 9.596634E-02 (1,2,4) 0.226320
(1,1,5): (1,1,4) -9.596634E-02 (1,1,6) 3.870949E-02 (1,2,5) 0.320577
(1,1,6): (1,1,5) -3.870949E-02 (1,1,7) -3.613051E-02 (1,2,6) 0.357020
(1,1,7): (1,1,6) 3.613051E-02 (1,1,8) -9.083668E-02 (1,2,7) 0.321892
(1,1,8): (1,1,7) 9.083668E-02 (1,1,9) -9.409413E-02 (1,2,8) 0.230397
(1,1,9): (1,1,8) 9.409413E-02 (1,1,10) -5.620810E-02 (1,2,9) 0.144094
(1,1,10): (1,1,9) 5.620810E-02 (1,2,10) 9.664315E-02
(1,2,1): (1,1,1) -4.213374E-02 (1,2,2) 6.934497E-02 (1,3,1) 7.786602E-02
(1,2,2): (1,1,2) -7.115205E-02 (1,2,1) -6.934497E-02 (1,2,3) 0.141667 (1,3,2) 0.138022
(1,2,3): (1,1,3) -0.133388 (1,2,2) -0.141667 (1,2,4) 0.198442 (1,3,3) 0.276123
(1,2,4): (1,1,4) -0.226320 (1,2,3) -0.198442 (1,2,5) 0.190102 (1,3,4) 0.504397
(1,2,5): (1,1,5) -0.320577 (1,2,4) -0.190102 (1,2,6) 7.505184E-02 (1,3,5) 0.762905
(1,2,6): (1,1,6) -0.357020 (1,2,5) -7.505184E-02 (1,2,7) -7.115987E-02 (1,3,6) 0.853983
(1,2,7): (1,1,7) -0.321892 (1,2,6) 7.115987E-02 (1,2,8) -0.182207 (1,3,7) 0.765233
(1,2,8): (1,1,8) -0.230397 (1,2,7) 0.182207 (1,2,9) -0.180354 (1,3,8) 0.511660
(1,2,9): (1,1,9) -0.144094 (1,2,8) 0.180354 (1,2,10) -0.103640 (1,3,9) 0.295572
(1,2,10): (1,1,10) -9.664315E-02 (1,2,9) 0.103640 (1,3,10) 0.185960
(1,3,1): (1,2,1) -7.786602E-02 (1,3,2) 0.129496 (1,4,1) 8.122247E-02
(1,3,2): (1,2,2) -0.138022 (1,3,1) -0.129496 (1,3,3) 0.279773 (1,4,2) 0.160307
(1,3,3): (1,2,3) -0.276123 (1,3,2) -0.279773 (1,3,4) 0.426543 (1,4,3) 0.372390
(1,3,4): (1,2,4) -0.504397 (1,3,3) -0.426543 (1,3,5) 0.447826 (1,4,4) 0.809916
(1,3,5): (1,2,5) -0.762905 (1,3,4) -0.447826 (1,3,6) 0.165531 (1,4,5) 1.44341
(1,3,6): (1,2,6) -0.853983 (1,3,5) -0.165531 (1,3,7) -0.159321 (1,4,6) 1.60703
(1,3,7): (1,2,7) -0.765233 (1,3,6) 0.159321 (1,3,8) -0.434973 (1,4,7) 1.44567
(1,3,8): (1,2,8) -0.511660 (1,3,7) 0.434973 (1,3,9) -0.396199 (1,4,8) 0.816962
(1,3,9): (1,2,9) -0.295572 (1,3,8) 0.396199 (1,3,10) -0.213163 (1,4,9) 0.391856
(1,3,10): (1,2,10) -0.185960 (1,3,9) 0.213163 (1,4,10) 0.211796
(1,4,1): (1,3,1) -8.122247E-02 (1,4,2) 0.208618 (1,5,1) 4.107196E-03
(1,4,2): (1,3,2) -0.160307 (1,4,1) -0.208618 (1,4,3) 0.492104 (1,5,2) 4.001285E-02
(1,4,3): (1,3,3) -0.372390 (1,4,2) -0.492104 (1,4,4) 0.864297 (1,5,3) 0.222535
(1,4,4): (1,3,4) -0.809916 (1,4,3) -0.864297 (1,4,5) 1.07916 (1,5,4) 0.897313
(1,4,5): (1,3,5) -1.44341 (1,4,4) -1.07916 (1,4,6) 0.327237 (1,5,5) 2.57874
(1,4,6): (1,3,6) -1.60703 (1,4,5) -0.327237 (1,4,7) -0.318777 (1,5,6) 2.67374
(1,4,7): (1,3,7) -1.44567 (1,4,6) 0.318777 (1,4,8) -1.06143 (1,5,7) 2.57882
(1,4,8): (1,3,8) -0.816962 (1,4,7) 1.06143 (1,4,9) -0.821323 (1,5,8) 0.897151
(1,4,9): (1,3,9) -0.391856 (1,4,8) 0.821323 (1,4,10) -0.393225 (1,5,9) 0.222141
(1,4,10): (1,3,10) -0.211796 (1,4,9) 0.393225 (1,5,10) 4.391225E-02
(1,5,1): (1,4,1) -4.107196E-03 (1,5,2) 0.244596 (1,6,1) -0.176202
(1,5,2): (1,4,2) -4.001285E-02 (1,5,1) -0.244596 (1,5,3) 0.675433 (1,6,2) -0.328997
(1,5,3): (1,4,3) -0.222535 (1,5,2) -0.675433 (1,5,4) 1.54319 (1,6,3) -0.574719
(1,5,4): (1,4,4) -0.897313 (1,5,3) -1.54319 (1,5,5) 2.76335 (1,6,4) -0.200034
(1,5,5): (1,4,5) -2.57874 (1,5,4) -2.76335 (1,5,6) 0.420519 (1,6,5) 5.14807
(1,5,6): (1,4,6) -2.67374 (1,5,5) -0.420519 (1,5,7) -0.411969 (1,6,6) 3.78710
(1,5,7): (1,4,7) -2.57882 (1,5,6) 0.411969 (1,5,8) -2.74559 (1,6,7) 5.14399
(1,5,8): (1,4,8) -0.897151 (1,5,7) 2.74559 (1,5,9) -1.50017 (1,6,8) -0.213991
(1,5,9): (1,4,9) -0.222141 (1,5,8) 1.50017 (1,5,10) -0.572061 (1,6,9) -0.617092
(1,5,10): (1,4,10) -4.391225E-02 (1,5,9) 0.572061 (1,6,10) -0.444492
(1,6,1): (1,5,1) 0.176202 (1,6,2) 9.192736E-02 (1,7,1) -0.341208
(1,6,2): (1,5,2) 0.328997 (1,6,1) -9.192736E-02 (1,6,3) 0.429471 (1,7,2) -0.803064
(1,6,3): (1,5,3) 0.574719 (1,6,2) -0.429471 (1,6,4) 1.92275 (1,7,3) -2.28743
(1,6,4): (1,5,4) 0.200034 (1,6,3) -1.92275 (1,6,5) 8.24849 (1,7,4) -6.73807
(1,6,5): (1,5,5) -5.14807 (1,6,4) -8.24849 (1,6,6) -0.895192 (1,7,5) -21.2293
(1,6,6): (1,5,6) -3.78710 (1,6,5) 0.895192 (1,6,7) 0.899847 (1,7,6) -33.4316
(1,6,7): (1,5,7) -5.14399 (1,6,6) -0.899847 (1,6,8) -8.24065 (1,7,7) -21.2362
(1,6,8): (1,5,8) 0.213991 (1,6,7) 8.24065 (1,6,9) -1.90830 (1,7,8) -6.76143
(1,6,9): (1,5,9) 0.617092 (1,6,8) 1.90830 (1,6,10) -0.399536 (1,7,9) -2.36282
(1,6,10): (1,5,10) 0.444492 (1,6,9) 0.399536 (1,7,10) -1.03639
(1,7,1): (1,6,1) 0.341208 (1,7,2) -0.368021 (1,8,1) -0.195920
(1,7,2): (1,6,2) 0.803064 (1,7,1) 0.368021 (1,7,3) -1.03864 (1,8,2) -0.485197
(1,7,3): (1,6,3) 2.28743 (1,7,2) 1.03864 (1,7,4) -2.38464 (1,8,3) -1.48988
(1,7,4): (1,6,4) 6.73807 (1,7,3) 2.38464 (1,7,5) -5.01414 (1,8,4) -4.76576
(1,7,5): (1,6,5) 21.2293 (1,7,4) 5.01414 (1,7,6) -11.0049 (1,8,5) -15.7620
(1,7,6): (1,6,6) 33.4316 (1,7,5) 11.0049 (1,7,7) 11.0035 (1,8,6) -55.7667
(1,7,7): (1,6,7) 21.2362 (1,7,6) -11.0035 (1,7,8) 5.00487 (1,8,7) -15.7656
(1,7,8): (1,6,8) 6.76143 (1,7,7) -5.00487 (1,7,9) 2.34615 (1,8,8) -4.77857
(1,7,9): (1,6,9) 2.36282 (1,7,8) -2.34615 (1,7,10) 0.909668 (1,8,9) -1.53192
(1,7,10): (1,6,10) 1.03639 (1,7,9) -0.909668 (1,8,10) -0.619230
(1,8,1): (1,7,1) 0.195920 (1,8,2) -0.657801 (1,9,1) 0.173899
(1,8,2): (1,7,2) 0.485197 (1,8,1) 0.657801 (1,8,3) -2.04904 (1,9,2) 0.459251
(1,8,3): (1,7,3) 1.48988 (1,8,2) 2.04904 (1,8,4) -5.69193 (1,9,3) 1.45792
(1,8,4): (1,7,4) 4.76576 (1,8,3) 5.69193 (1,8,5) -16.0425 (1,9,4) 4.71955
(1,8,5): (1,7,5) 15.7620 (1,8,4) 16.0425 (1,8,6) -48.1978 (1,9,5) 15.6546
(1,8,6): (1,7,6) 55.7667 (1,8,5) 48.1978 (1,8,7) 48.1901 (1,9,6) 55.5962
(1,8,7): (1,7,7) 15.7656 (1,8,6) -48.1901 (1,8,8) 16.0212 (1,9,7) 15.6569
(1,8,8): (1,7,8) 4.77857 (1,8,7) -16.0212 (1,8,9) 5.62116 (1,9,8) 4.72922
(1,8,9): (1,7,9) 1.53192 (1,8,8) -5.62116 (1,8,10) 1.82509 (1,9,9) 1.49370
(1,8,10): (1,7,10) 0.619230 (1,8,9) -1.82509 (1,9,10) 0.582705
(1,9,1): (1,8,1) -0.173899 (1,9,2) -0.371878 (1,10,1) 0.325781
(1,9,2): (1,8,2) -0.459251 (1,9,1) 0.371878 (1,9,3) -1.04436 (1,10,2) 0.783826
(1,9,3): (1,8,3) -1.45792 (1,9,2) 1.04436 (1,9,4) -2.39744 (1,10,3) 2.25858
(1,9,4): (1,8,4) -4.71955 (1,9,3) 2.39744 (1,9,5) -5.06315 (1,10,4) 6.66262
(1,9,5): (1,8,5) -15.6546 (1,9,4) 5.06315 (1,9,6) -11.0061 (1,10,5) 20.8286
(1,9,6): (1,8,6) -55.5962 (1,9,5) 11.0061 (1,9,7) 11.0034 (1,10,6) 32.9509
(1,9,7): (1,8,7) -15.6569 (1,9,6) -11.0034 (1,9,8) 5.05191 (1,10,7) 20.8345
(1,9,8): (1,8,8) -4.72922 (1,9,7) -5.05191 (1,9,9) 2.35570 (1,10,8) 6.68377
(1,9,9): (1,8,9) -1.49370 (1,9,8) -2.35570 (1,9,10) 0.911008 (1,10,9) 2.32958
(1,9,10): (1,8,10) -0.582705 (1,9,9) -0.911008 (1,10,10) 1.00950
(1,10,1): (1,9,1) -0.325781 (1,10,2) 8.436397E-02 (1,11,1) 0.170759
(1,10,2): (1,9,2) -0.783826 (1,10,1) -8.436397E-02 (1,10,3) 0.414611 (1,11,2) 0.321444
(1,10,3): (1,9,3) -2.25858 (1,10,2) -0.414611 (1,10,4) 1.86643 (1,11,3) 0.566925
(1,10,4): (1,9,4) -6.66262 (1,10,3) -1.86643 (1,10,5) 7.90854 (1,11,4) 0.225417
(1,10,5): (1,9,5) -20.8286 (1,10,4) -7.90854 (1,10,6) -0.934185 (1,11,5) -4.84707
(1,10,6): (1,9,6) -32.9509 (1,10,5) 0.934185 (1,10,7) 0.936830 (1,11,6) -3.46084
(1,10,7): (1,9,7) -20.8345 (1,10,6) -0.936830 (1,10,8) -7.90400 (1,11,7) -4.84325
(1,10,8): (1,9,8) -6.68377 (1,10,7) 7.90400 (1,10,9) -1.85746 (1,11,8) 0.238653
(1,10,9): (1,9,9) -2.32958 (1,10,8) 1.85746 (1,10,10) -0.392297 (1,11,9) 0.607754
(1,10,10): (1,9,10) -1.00950 (1,10,9) 0.392297 (1,11,10) 0.433884
(1,11,1): (1,10,1) -0.170759 (1,11,2) 0.234920 (1,12,1) -1.314146E-04
(1,11,2): (1,10,2) -0.321444 (1,11,1) -0.234920 (1,11,3) 0.660315 (1,12,2) -3.651639E-02
(1,11,3): (1,10,3) -0.566925 (1,11,2) -0.660315 (1,11,4) 1.52062 (1,12,3) -0.219878
(1,11,4): (1,10,4) -0.225417 (1,11,3) -1.52062 (1,11,5) 2.70687 (1,12,4) -0.888523
(1,11,5): (1,10,5) 4.84707 (1,11,4) -2.70687 (1,11,6) 0.409274 (1,12,5) -2.52912
(1,11,6): (1,10,6) 3.46084 (1,11,5) -0.409274 (1,11,7) -0.402964 (1,12,6) -2.61756
(1,11,7): (1,10,7) 4.84325 (1,11,6) 0.402964 (1,11,8) -2.69275 (1,12,7) -2.52892
(1,11,8): (1,10,8) -0.238653 (1,11,7) 2.69275 (1,11,9) -1.48389 (1,12,8) -0.887726
(1,11,9): (1,10,9) -0.607754 (1,11,8) 1.48389 (1,11,10) -0.566096 (1,12,9) -0.218331
(1,11,10): (1,10,10) -0.433884 (1,11,9) 0.566096 (1,12,10) -3.886042E-02
(1,12,1): (1,11,1) 1.314146E-04 (1,12,2) 0.198464 (1,13,1) -7.189596E-02
(1,12,2): (1,11,2) 3.651639E-02 (1,12,1) -0.198464 (1,12,3) 0.476164 (1,13,2) -0.149520
(1,12,3): (1,11,3) 0.219878 (1,12,2) -0.476164 (1,12,4) 0.847980 (1,13,3) -0.360023
(1,12,4): (1,11,4) 0.888523 (1,12,3) -0.847980 (1,12,5) 1.06367 (1,13,4) -0.796267
(1,12,5): (1,11,5) 2.52912 (1,12,4) -1.06367 (1,12,6) 0.322404 (1,13,5) -1.42553
(1,12,6): (1,11,6) 2.61756 (1,12,5) -0.322404 (1,12,7) -0.315905 (1,13,6) -1.58860
(1,12,7): (1,11,7) 2.52892 (1,12,6) 0.315905 (1,12,8) -1.04916 (1,13,7) -1.42727
(1,12,8): (1,11,8) 0.887726 (1,12,7) 1.04916 (1,12,9) -0.810724 (1,13,8) -0.801991
(1,12,9): (1,11,9) 0.218331 (1,12,8) 0.810724 (1,12,10) -0.386017 (1,13,9) -0.376837
(1,12,10): (1,11,10) 3.886042E-02 (1,12,9) 0.386017 (1,13,10) -0.196569
(1,13,1): (1,12,1) 7.189596E-02 (1,13,2) 0.120802 (1,14,1) -6.848370E-02
(1,13,2): (1,12,2) 0.149520 (1,13,1) -0.120802 (1,13,3) 0.265422 (1,14,2) -0.126390
(1,13,3): (1,12,3) 0.360023 (1,13,2) -0.265422 (1,13,4) 0.411519 (1,14,3) -0.261183
(1,13,4): (1,12,4) 0.796267 (1,13,3) -0.411519 (1,13,5) 0.436537 (1,14,4) -0.486612
(1,13,5): (1,12,5) 1.42553 (1,13,4) -0.436537 (1,13,6) 0.161231 (1,14,5) -0.743222
(1,13,6): (1,12,6) 1.58860 (1,13,5) -0.161231 (1,13,7) -0.156460 (1,14,6) -0.833721
(1,13,7): (1,12,7) 1.42727 (1,13,6) 0.156460 (1,13,8) -0.426087 (1,14,7) -0.745063
(1,13,8): (1,12,8) 0.801991 (1,13,7) 0.426087 (1,13,9) -0.385535 (1,14,8) -0.492604
(1,13,9): (1,12,9) 0.376837 (1,13,8) 0.385535 (1,13,10) -0.205733 (1,14,9) -0.277993
(1,13,10): (1,12,10) 0.196569 (1,13,9) 0.205733 (1,14,10) -0.169649
(1,14,1): (1,13,1) 6.848370E-02 (1,14,2) 6.289828E-02 (1,15,1) -3.657863E-02
(1,14,2): (1,13,2) 0.126390 (1,14,1) -6.289828E-02 (1,14,3) 0.130624 (1,15,2) -6.405188E-02
(1,14,3): (1,13,3) 0.261183 (1,14,2) -0.130624 (1,14,4) 0.186255 (1,15,3) -0.123817
(1,14,4): (1,13,4) 0.486612 (1,14,3) -0.186255 (1,14,5) 0.180686 (1,15,4) -0.214312
(1,14,5): (1,13,5) 0.743222 (1,14,4) -0.180686 (1,14,6) 7.131441E-02 (1,15,5) -0.306898
(1,14,6): (1,13,6) 0.833721 (1,14,5) -7.131441E-02 (1,14,7) -6.837746E-02 (1,15,6) -0.342711
(1,14,7): (1,13,7) 0.745063 (1,14,6) 6.837746E-02 (1,14,8) -0.174406 (1,15,7) -0.307936
(1,14,8): (1,13,8) 0.492604 (1,14,7) 0.174406 (1,14,9) -0.171148 (1,15,8) -0.217655
(1,14,9): (1,13,9) 0.277993 (1,14,8) 0.171148 (1,14,10) -9.746585E-02 (1,15,9) -0.132972
(1,14,10): (1,13,10) 0.169649 (1,14,9) 9.746585E-02 (1,15,10) -8.671792E-02
(1,15,1): (1,14,1) 3.657863E-02 (1,15,2) 3.542535E-02
(1,15,2): (1,14,2) 6.405188E-02 (1,15,1) -3.542535E-02 (1,15,3) 7.085534E-02
(1,15,3): (1,14,3) 0.123817 (1,15,2) -7.085534E-02 (1,15,4) 9.578463E-02
(1,15,4): (1,14,4) 0.214312 (1,15,3) -9.578463E-02 (1,15,5) 8.821535E-02
(1,15,5): (1,14,5) 0.306898 (1,15,4) -8.821535E-02 (1,15,6) 3.559700E-02
(1,15,6): (1,14,6) 0.342711 (1,15,5) -3.559700E-02 (1,15,7) -3.369671E-02
(1,15,7): (1,14,7) 0.307936 (1,15,6) 3.369671E-02 (1,15,8) -8.424270E-02
(1,15,8): (1,14,8) 0.217655 (1,15,7) 8.424270E-02 (1,15,9) -8.650361E-02
(1,15,9): (1,14,9) 0.132972 (1,15,8) 8.650361E-02 (1,15,10) -5.122818E-02
(1,15,10): (1,14,10) 8.671792E-02 (1,15,9) 5.122818E-02

 WEL PACKAGE (WEL-1) FLOW RATES   PERIOD      2   STEP       63
 ----------------------------------------------------------------------------------------
   NUMBER   CELLID                    RATE       NAME                                    
 ----------------------------------------------------------------------------------------
     1      (1,8,6)              -207.85413      WEL                                     
 ----------------------------------------------------------------------------------------




 DRN PACKAGE (DRN-0) FLOW RATES   PERIOD      2   STEP       63
 ----------------------------------------------------------------------------------------
   NUMBER   CELLID                    RATE       NAME                                    
 ----------------------------------------------------------------------------------------
     1      (1,1,1)               0.0000000      SURF                                    
     2      (1,1,2)               0.0000000      SURF                                    
     3      (1,1,3)               0.0000000      SURF                                    
     4      (1,1,4)               0.0000000      SURF                                    
     5      (1,1,5)               0.0000000      SURF                                    
     6      (1,1,6)               0.0000000      SURF                                    
     7      (1,1,7)               0.0000000      SURF                                    
     8      (1,1,8)               0.0000000      SURF                                    
     9      (1,1,9)               0.0000000      SURF                                    
     10     (1,1,10)              0.0000000      SURF                                    
     11     (1,2,1)               0.0000000      SURF                                    
     12     (1,2,2)               0.0000000      SURF                                    
     13     (1,2,3)               0.0000000      SURF                                    
     14     (1,2,4)               0.0000000      SURF                                    
     15     (1,2,5)               0.0000000      SURF                                    
     16     (1,2,6)               0.0000000      SURF                                    
     17     (1,2,7)               0.0000000      SURF                                    
     18     (1,2,8)               0.0000000      SURF                                    
     19     (1,2,9)               0.0000000      SURF                                    
     20     (1,2,10)              0.0000000      SURF                                    
     21     (1,3,1)               0.0000000      SURF                                    
     22     (1,3,2)               0.0000000      SURF                                    
     23     (1,3,3)               0.0000000      SURF                                    
     24     (1,3,4)               0.0000000      SURF                                    
     25     (1,3,5)               0.0000000      SURF                                    
     26     (1,3,6)               0.0000000      SURF                                    
     27     (1,3,7)               0.0000000      SURF                                    
     28     (1,3,8)               0.0000000      SURF                                    
     29     (1,3,9)               0.0000000      SURF                                    
     30     (1,3,10)              0.0000000      SURF                                    
     31     (1,4,1)               0.0000000      SURF                                    
     32     (1,4,2)               0.0000000      SURF                                    
     33     (1,4,3)               0.0000000      SURF                                    
     34     (1,4,4)               0.0000000      SURF                                    
     35     (1,4,5)               0.0000000      SURF                                    
     36     (1,4,6)               0.0000000      SURF                                    
     37     (1,4,7)               0.0000000      SURF                                    
     38     (1,4,8)               0.0000000      SURF                                    
     39     (1,4,9)               0.0000000      SURF                                    
     40     (1,4,10)              0.0000000      SURF                                    
     41     (1,5,1)               0.0000000      SURF                                    
     42     (1,5,2)               0.0000000      SURF                                    
     43     (1,5,3)               0.0000000      SURF                                    
     44     (1,5,4)               0.0000000      SURF                                    
     45     (1,5,5)               0.0000000      SURF                                    
     46     (1,5,6)               0.0000000      SURF                                    
     47     (1,5,7)               0.0000000      SURF                                    
     48     (1,5,8)               0.0000000      SURF                                    
     49     (1,5,9)               0.0000000      SURF                                    
     50     (1,5,10)              0.0000000      SURF                                    
     51     (1,6,1)               0.0000000      SURF                                    
     52     (1,6,2)               0.0000000      SURF                                    
     53     (1,6,3)               0.0000000      SURF                                    
     54     (1,6,4)               0.0000000      SURF                                    
     55     (1,6,5)               0.0000000      SURF                                    
     56     (1,6,6)               0.0000000      SURF                                    
     57     (1,6,7)              -3.30823241E-07 SURF                                    
     58     (1,6,8)               0.0000000      SURF                                    
     59     (1,6,9)               0.0000000      SURF                                    
     60     (1,6,10)              0.0000000      SURF                                    
     61     (1,7,1)               0.0000000      SURF                                    
     62     (1,7,2)               0.0000000      SURF                                    
     63     (1,7,3)               0.0000000      SURF                                    
     64     (1,7,4)               0.0000000      SURF                                    
     65     (1,7,5)               0.0000000      SURF                                    
     66     (1,7,6)               0.0000000      SURF                                    
     67     (1,7,7)               0.0000000      SURF                                    
     68     (1,7,8)               0.0000000      SURF                                    
     69     (1,7,9)               0.0000000      SURF                                    
     70     (1,7,10)              0.0000000      SURF                                    
     71     (1,8,1)               0.0000000      SURF                                    
     72     (1,8,2)               0.0000000      SURF                                    
     73     (1,8,3)               0.0000000      SURF                                    
     74     (1,8,4)               0.0000000      SURF                                    
     75     (1,8,5)               0.0000000      SURF                                    
     76     (1,8,6)               0.0000000      SURF                                    
     77     (1,8,7)               0.0000000      SURF                                    
     78     (1,8,8)               0.0000000      SURF                                    
     79     (1,8,9)               0.0000000      SURF                                    
     80     (1,8,10)              0.0000000      SURF                                    
     81     (1,9,1)               0.0000000      SURF                                    
     82     (1,9,2)               0.0000000      SURF                                    
     83     (1,9,3)               0.0000000      SURF                                    
     84     (1,9,4)               0.0000000      SURF                                    
     85     (1,9,5)               0.0000000      SURF                                    
     86     (1,9,6)               0.0000000      SURF                                    
     87     (1,9,7)               0.0000000      SURF                                    
     88     (1,9,8)               0.0000000      SURF                                    
     89     (1,9,9)               0.0000000      SURF                                    
     90     (1,9,10)              0.0000000      SURF                                    
     91     (1,10,1)              0.0000000      SURF                                    
     92     (1,10,2)              0.0000000      SURF                                    
     93     (1,10,3)              0.0000000      SURF                                    
     94     (1,10,4)              0.0000000      SURF                                    
     95     (1,10,5)              0.0000000      SURF                                    
     96     (1,10,6)              0.0000000      SURF                                    
     97     (1,10,7)              0.0000000      SURF                                    
     98     (1,10,8)              0.0000000      SURF                                    
     99     (1,10,9)              0.0000000      SURF                                    
    100     (1,10,10)             0.0000000      SURF                                    
    101     (1,11,1)              0.0000000      SURF                                    
    102     (1,11,2)              0.0000000      SURF                                    
    103     (1,11,3)              0.0000000      SURF                                    
    104     (1,11,4)              0.0000000      SURF                                    
    105     (1,11,5)              0.0000000      SURF                                    
    106     (1,11,6)              0.0000000      SURF                                    
    107     (1,11,7)              0.0000000      SURF                                    
    108     (1,11,8)              0.0000000      SURF                                    
    109     (1,11,9)              0.0000000      SURF                                    
    110     (1,11,10)             0.0000000      SURF                                    
    111     (1,12,1)              0.0000000      SURF                                    
    112     (1,12,2)              0.0000000      SURF                                    
    113     (1,12,3)              0.0000000      SURF                                    
    114     (1,12,4)              0.0000000      SURF                                    
    115     (1,12,5)              0.0000000      SURF                                    
    116     (1,12,6)              0.0000000      SURF                                    
    117     (1,12,7)              0.0000000      SURF                                    
    118     (1,12,8)              0.0000000      SURF                                    
    119     (1,12,9)              0.0000000      SURF                                    
    120     (1,12,10)             0.0000000      SURF                                    
    121     (1,13,1)              0.0000000      SURF                                    
    122     (1,13,2)              0.0000000      SURF                                    
    123     (1,13,3)              0.0000000      SURF                                    
    124     (1,13,4)              0.0000000      SURF                                    
    125     (1,13,5)              0.0000000      SURF                                    
    126     (1,13,6)              0.0000000      SURF                                    
    127     (1,13,7)              0.0000000      SURF                                    
    128     (1,13,8)              0.0000000      SURF                                    
    129     (1,13,9)              0.0000000      SURF                                    
    130     (1,13,10)             0.0000000      SURF                                    
    131     (1,14,1)              0.0000000      SURF                                    
    132     (1,14,2)              0.0000000      SURF                                    
    133     (1,14,3)              0.0000000      SURF                                    
    134     (1,14,4)              0.0000000      SURF                                    
    135     (1,14,5)              0.0000000      SURF                                    
    136     (1,14,6)              0.0000000      SURF                                    
    137     (1,14,7)              0.0000000      SURF                                    
    138     (1,14,8)              0.0000000      SURF                                    
    139     (1,14,9)              0.0000000      SURF                                    
    140     (1,14,10)             0.0000000      SURF                                    
    141     (1,15,1)              0.0000000      SURF                                    
    142     (1,15,2)              0.0000000      SURF                                    
    143     (1,15,3)              0.0000000      SURF                                    
    144     (1,15,4)              0.0000000      SURF                                    
    145     (1,15,5)              0.0000000      SURF                                    
    146     (1,15,6)              0.0000000      SURF                                    
    147     (1,15,7)              0.0000000      SURF                                    
    148     (1,15,8)              0.0000000      SURF                                    
    149     (1,15,9)              0.0000000      SURF                                    
    150     (1,15,10)             0.0000000      SURF                                    
 ----------------------------------------------------------------------------------------




 API PACKAGE (MAR) FLOW RATES   PERIOD      2   STEP       63
 -----------------------------------------------
   NUMBER   CELLID                    RATE      
 -----------------------------------------------
     1      (1,6,5)               35.520680     
     2      (1,6,6)               35.520680     
     3      (1,6,7)               35.520680     
     4      (1,10,5)              33.764031     
     5      (1,10,6)              33.764031     
     6      (1,10,7)              33.764031     
 -----------------------------------------------



1
  HEAD IN LAYER   1 AT END OF TIME STEP  63 IN STRESS PERIOD    2
  ---------------------------------------------------------------------------

            1           2           3           4           5           6           7           8           9          10
 ........................................................................................................................
   1   7.3220E-03  1.1350E-02  1.9277E-02  2.9800E-02  3.9359E-02  4.3213E-02  3.9615E-02  3.0568E-02  2.1187E-02  1.5578E-02
   2   1.1531E-02  1.8452E-02  3.2573E-02  5.2314E-02  7.1190E-02  7.8636E-02  7.1576E-02  5.3485E-02  3.5545E-02  2.5218E-02
   3   1.9302E-02  3.2210E-02  6.0020E-02  0.1022      0.1464      0.1627      0.1470      0.1041      6.4912E-02  4.3733E-02
   4   2.7402E-02  4.8164E-02  9.6902E-02  0.1818      0.2867      0.3184      0.2875      0.1843      0.1037      6.4776E-02
   5   2.7812E-02  5.2144E-02  0.1189      0.2692      0.5316      0.5713      0.5324      0.2717      0.1256      6.9137E-02
   6   1.0240E-02  1.9415E-02  6.2097E-02  0.2497      0.9996      0.9182       1.000      0.2508      6.4690E-02  2.4993E-02
   7  -2.3845E-02 -6.0735E-02 -0.1652     -0.4077     -0.9304      -2.144     -0.9306     -0.4087     -0.1701     -7.8388E-02
   8  -4.3484E-02 -0.1096     -0.3167     -0.9045      -2.668      -9.242      -2.669     -0.9070     -0.3259     -0.1408    
   9  -2.6049E-02 -6.3334E-02 -0.1684     -0.4123     -0.9404      -2.155     -0.9406     -0.4136     -0.1739     -8.2047E-02
  10   6.5081E-03  1.4932E-02  5.6161E-02  0.2385      0.9600      0.8748      0.9603      0.2391      5.7719E-02  1.8714E-02
  11   2.3544E-02  4.6926E-02  0.1122      0.2604      0.5178      0.5566      0.5184      0.2624      0.1178      6.1836E-02
  12   2.3531E-02  4.3291E-02  9.0481E-02  0.1738      0.2773      0.3086      0.2780      0.1759      9.6208E-02  5.7974E-02
  13   1.6358E-02  2.8404E-02  5.4801E-02  9.5564E-02  0.1386      0.1545      0.1391      9.7066E-02  5.8883E-02  3.8430E-02
  14   9.5208E-03  1.5801E-02  2.8826E-02  4.7363E-02  6.5315E-02  7.2395E-02  6.5606E-02  4.8279E-02  3.1247E-02  2.1531E-02
  15   5.8664E-03  9.4056E-03  1.6479E-02  2.6033E-02  3.4824E-02  3.8370E-02  3.5013E-02  2.6618E-02  1.7991E-02  1.2877E-02

 HEAD WILL BE SAVED ON UNIT 1100 AT END OF TIME STEP   63, STRESS PERIOD    2


  VOLUME BUDGET FOR ENTIRE MODEL AT END OF TIME STEP   63, STRESS PERIOD   2
  ---------------------------------------------------------------------------------------------------

     CUMULATIVE VOLUME      L**3       RATES FOR THIS TIME STEP      L**3/T          PACKAGE NAME    
     ------------------                 ------------------------                     ----------------

           IN:                                      IN:
           ---                                      ---
              STO-SS =          23.1501                STO-SS =       1.0560E-02     STORAGE                          
              STO-SY =       57733.8920                STO-SY =          22.1964     STORAGE                          
                 WEL =           0.0000                   WEL =           0.0000     WEL-1                            
                 DRN =           0.0000                   DRN =           0.0000     DRN-0                            
                 API =      128525.2399                   API =         207.8541     MAR                              
                 CHD =       2.0279E-08                   CHD =           0.0000     CHD_0                            

            TOTAL IN =      186282.2820              TOTAL IN =         230.0611

          OUT:                                     OUT:
          ----                                     ----
              STO-SS =          19.5597                STO-SS =       1.1232E-02     STORAGE                          
              STO-SY =       38168.6760                STO-SY =          22.1957     STORAGE                          
                 WEL =      148094.0461                   WEL =         207.8541     WEL-1                            
                 DRN =       2.1190E-04                   DRN =       3.3082E-07     DRN-0                            
                 API =           0.0000                   API =           0.0000     MAR                              
                 CHD =       2.0705E-08                   CHD =           0.0000     CHD_0                            

           TOTAL OUT =      186282.2820             TOTAL OUT =         230.0611

            IN - OUT =      -1.1528E-06              IN - OUT =       8.5384E-10

 PERCENT DISCREPANCY =          -0.00     PERCENT DISCREPANCY =           0.00




         TIME SUMMARY AT END OF TIME STEP   63 IN STRESS PERIOD    2
                    SECONDS     MINUTES      HOURS       DAYS        YEARS
                    -----------------------------------------------------------
   TIME STEP LENGTH 8.64000E+05  14400.      240.00      10.000     2.73785E-02
 STRESS PERIOD TIME 5.44320E+07 9.07200E+05  15120.      630.00      1.7248    
         TOTAL TIME 5.45184E+07 9.08640E+05  15144.      631.00      1.7276    


end timestep


start timestep kper="2" kstp="64" mode="normal"

 UBDSV1 SAVING           STO-SS ON UNIT   1099 AT TIME STEP     64, STRESS PERIOD      2
 UBDSV1 SAVING           STO-SY ON UNIT   1099 AT TIME STEP     64, STRESS PERIOD      2
 UBDSV1 SAVING     FLOW-JA-FACE ON UNIT   1099 AT TIME STEP     64, STRESS PERIOD      2
 UBDSV06 SAVING       DATA-SPDIS IN MODEL GWF              PACKAGE NPF             CONNECTED TO MODEL GWF              PACKAGE NPF              ON UNIT   1099 AT TIME STEP     64, STRESS PERIOD      2
 UBDSV06 SAVING              WEL IN MODEL GWF              PACKAGE GWF             CONNECTED TO MODEL GWF              PACKAGE WEL-1            ON UNIT   1099 AT TIME STEP     64, STRESS PERIOD      2
 UBDSV06 SAVING              DRN IN MODEL GWF              PACKAGE GWF             CONNECTED TO MODEL GWF              PACKAGE DRN-0            ON UNIT   1099 AT TIME STEP     64, STRESS PERIOD      2
 UBDSV06 SAVING              API IN MODEL GWF              PACKAGE GWF             CONNECTED TO MODEL GWF              PACKAGE MAR              ON UNIT   1099 AT TIME STEP     64, STRESS PERIOD      2
 UBDSV06 SAVING              CHD IN MODEL GWF              PACKAGE GWF             CONNECTED TO MODEL GWF              PACKAGE CHD_0            ON UNIT   1099 AT TIME STEP     64, STRESS PERIOD      2

    CALCULATED INTERCELL FLOW FOR PERIOD 2 STEP 64
(1,1,1): (1,1,2) 4.171897E-02 (1,2,1) 4.323826E-02
(1,1,2): (1,1,1) -4.171897E-02 (1,1,3) 8.189111E-02 (1,2,2) 7.255617E-02
(1,1,3): (1,1,2) -8.189111E-02 (1,1,4) 0.108402 (1,2,3) 0.135322
(1,1,4): (1,1,3) -0.108402 (1,1,5) 9.830047E-02 (1,2,4) 0.228889
(1,1,5): (1,1,4) -9.830047E-02 (1,1,6) 3.965800E-02 (1,2,5) 0.323694
(1,1,6): (1,1,5) -3.965800E-02 (1,1,7) -3.687485E-02 (1,2,6) 0.360372
(1,1,7): (1,1,6) 3.687485E-02 (1,1,8) -9.283120E-02 (1,2,7) 0.325069
(1,1,8): (1,1,7) 9.283120E-02 (1,1,9) -9.634014E-02 (1,2,8) 0.233116
(1,1,9): (1,1,8) 9.634014E-02 (1,1,10) -5.765451E-02 (1,2,9) 0.146335
(1,1,10): (1,1,9) 5.765451E-02 (1,2,10) 9.859089E-02
(1,2,1): (1,1,1) -4.323826E-02 (1,2,2) 7.103643E-02 (1,3,1) 7.918902E-02
(1,2,2): (1,1,2) -7.255617E-02 (1,2,1) -7.103643E-02 (1,2,3) 0.144663 (1,3,2) 0.139601
(1,2,3): (1,1,3) -0.135322 (1,2,2) -0.144663 (1,2,4) 0.201943 (1,3,3) 0.278187
(1,2,4): (1,1,4) -0.228889 (1,2,3) -0.201943 (1,2,5) 0.192985 (1,3,4) 0.507149
(1,2,5): (1,1,5) -0.323694 (1,2,4) -0.192985 (1,2,6) 7.623321E-02 (1,3,5) 0.766399
(1,2,6): (1,1,6) -0.360372 (1,2,5) -7.623321E-02 (1,2,7) -7.207828E-02 (1,3,6) 0.857830
(1,2,7): (1,1,7) -0.325069 (1,2,6) 7.207828E-02 (1,2,8) -0.184657 (1,3,7) 0.768808
(1,2,8): (1,1,8) -0.233116 (1,2,7) 0.184657 (1,2,9) -0.183078 (1,3,8) 0.514607
(1,2,9): (1,1,9) -0.146335 (1,2,8) 0.183078 (1,2,10) -0.105379 (1,3,9) 0.298006
(1,2,10): (1,1,10) -9.859089E-02 (1,2,9) 0.105379 (1,3,10) 0.188142
(1,3,1): (1,2,1) -7.918902E-02 (1,3,2) 0.131443 (1,4,1) 8.104973E-02
(1,3,2): (1,2,2) -0.139601 (1,3,1) -0.131443 (1,3,3) 0.283256 (1,4,2) 0.159722
(1,3,3): (1,2,3) -0.278187 (1,3,2) -0.283256 (1,3,4) 0.430735 (1,4,3) 0.371243
(1,3,4): (1,2,4) -0.507149 (1,3,3) -0.430735 (1,3,5) 0.451450 (1,4,4) 0.808634
(1,3,5): (1,2,5) -0.766399 (1,3,4) -0.451450 (1,3,6) 0.167060 (1,4,5) 1.44274
(1,3,6): (1,2,6) -0.857830 (1,3,5) -0.167060 (1,3,7) -0.160507 (1,4,6) 1.60678
(1,3,7): (1,2,7) -0.768808 (1,3,6) 0.160507 (1,3,8) -0.438049 (1,4,7) 1.44503
(1,3,8): (1,2,8) -0.514607 (1,3,7) 0.438049 (1,3,9) -0.399436 (1,4,8) 0.815712
(1,3,9): (1,2,9) -0.298006 (1,3,8) 0.399436 (1,3,10) -0.215154 (1,4,9) 0.390672
(1,3,10): (1,2,10) -0.188142 (1,3,9) 0.215154 (1,4,10) 0.210949
(1,4,1): (1,3,1) -8.104973E-02 (1,4,2) 0.210155 (1,5,1) 6.473845E-04
(1,4,2): (1,3,2) -0.159722 (1,4,1) -0.210155 (1,4,3) 0.495033 (1,5,2) 3.487375E-02
(1,4,3): (1,3,3) -0.371243 (1,4,2) -0.495033 (1,4,4) 0.868376 (1,5,3) 0.214911
(1,4,4): (1,3,4) -0.808634 (1,4,3) -0.868376 (1,4,5) 1.08343 (1,5,4) 0.888299
(1,4,5): (1,3,5) -1.44274 (1,4,4) -1.08343 (1,4,6) 0.329188 (1,5,5) 2.57088
(1,4,6): (1,3,6) -1.60678 (1,4,5) -0.329188 (1,4,7) -0.320359 (1,5,6) 2.66681
(1,4,7): (1,3,7) -1.44503 (1,4,6) 0.320359 (1,4,8) -1.06514 (1,5,7) 2.57085
(1,4,8): (1,3,8) -0.815712 (1,4,7) 1.06514 (1,4,9) -0.824511 (1,5,8) 0.887784
(1,4,9): (1,3,9) -0.390672 (1,4,8) 0.824511 (1,4,10) -0.394885 (1,5,9) 0.213591
(1,4,10): (1,3,10) -0.210949 (1,4,9) 0.394885 (1,5,10) 3.670778E-02
(1,5,1): (1,4,1) -6.473845E-04 (1,5,2) 0.244452 (1,6,1) -0.183092
(1,5,2): (1,4,2) -3.487375E-02 (1,5,1) -0.244452 (1,5,3) 0.675880 (1,6,2) -0.338844
(1,5,3): (1,4,3) -0.214911 (1,5,2) -0.675880 (1,5,4) 1.54594 (1,6,3) -0.589031
(1,5,4): (1,4,4) -0.888299 (1,5,3) -1.54594 (1,5,5) 2.76898 (1,6,4) -0.216670
(1,5,5): (1,4,5) -2.57088 (1,5,4) -2.76898 (1,5,6) 0.423386 (1,6,5) 5.13600
(1,5,6): (1,4,6) -2.66681 (1,5,5) -0.423386 (1,5,7) -0.414574 (1,6,6) 3.77753
(1,5,7): (1,4,7) -2.57085 (1,5,6) 0.414574 (1,5,8) -2.75091 (1,6,7) 5.13165
(1,5,8): (1,4,8) -0.887784 (1,5,7) 2.75091 (1,5,9) -1.50261 (1,6,8) -0.231377
(1,5,9): (1,4,9) -0.213591 (1,5,8) 1.50261 (1,5,10) -0.572386 (1,6,9) -0.633245
(1,5,10): (1,4,10) -3.670778E-02 (1,5,9) 0.572386 (1,6,10) -0.458234
(1,6,1): (1,5,1) 0.183092 (1,6,2) 8.884446E-02 (1,7,1) -0.348600
(1,6,2): (1,5,2) 0.338844 (1,6,1) -8.884446E-02 (1,6,3) 0.425483 (1,7,2) -0.813594
(1,6,3): (1,5,3) 0.589031 (1,6,2) -0.425483 (1,6,4) 1.92311 (1,7,3) -2.30317
(1,6,4): (1,5,4) 0.216670 (1,6,3) -1.92311 (1,6,5) 8.25980 (1,7,4) -6.75922
(1,6,5): (1,5,5) -5.13600 (1,6,4) -8.25980 (1,6,6) -0.889993 (1,7,5) -21.2567
(1,6,6): (1,5,6) -3.77753 (1,6,5) 0.889993 (1,6,7) 0.894656 (1,7,6) -33.4550
(1,6,7): (1,5,7) -5.13165 (1,6,6) -0.894656 (1,6,8) -8.25216 (1,7,7) -21.2638
(1,6,8): (1,5,8) 0.231377 (1,6,7) 8.25216 (1,6,9) -1.90943 (1,7,8) -6.78339
(1,6,9): (1,5,9) 0.633245 (1,6,8) 1.90943 (1,6,10) -0.397477 (1,7,9) -2.38051
(1,6,10): (1,5,10) 0.458234 (1,6,9) 0.397477 (1,7,10) -1.05100
(1,7,1): (1,6,1) 0.348600 (1,7,2) -0.374201 (1,8,1) -0.199101
(1,7,2): (1,6,2) 0.813594 (1,7,1) 0.374201 (1,7,3) -1.04764 (1,8,2) -0.489672
(1,7,3): (1,6,3) 2.30317 (1,7,2) 1.04764 (1,7,4) -2.38878 (1,8,3) -1.49647
(1,7,4): (1,6,4) 6.75922 (1,7,3) 2.38878 (1,7,5) -5.00606 (1,8,4) -4.77388
(1,7,5): (1,6,5) 21.2567 (1,7,4) 5.00606 (1,7,6) -10.9932 (1,8,5) -15.7673
(1,7,6): (1,6,6) 33.4550 (1,7,5) 10.9932 (1,7,7) 10.9916 (1,8,6) -55.7476
(1,7,7): (1,6,7) 21.2638 (1,7,6) -10.9916 (1,7,8) 4.99605 (1,8,7) -15.7710
(1,7,8): (1,6,8) 6.78339 (1,7,7) -4.99605 (1,7,9) 2.34833 (1,8,8) -4.78703
(1,7,9): (1,6,9) 2.38051 (1,7,8) -2.34833 (1,7,10) 0.914579 (1,8,9) -1.53933
(1,7,10): (1,6,10) 1.05100 (1,7,9) -0.914579 (1,8,10) -0.625403
(1,8,1): (1,7,1) 0.199101 (1,8,2) -0.665286 (1,9,1) 0.177215
(1,8,2): (1,7,2) 0.489672 (1,8,1) 0.665286 (1,8,3) -2.06022 (1,9,2) 0.463927
(1,8,3): (1,7,3) 1.49647 (1,8,2) 2.06022 (1,8,4) -5.69756 (1,9,3) 1.46415
(1,8,4): (1,7,4) 4.77388 (1,8,3) 5.69756 (1,8,5) -16.0295 (1,9,4) 4.72396
(1,8,5): (1,7,5) 15.7673 (1,8,4) 16.0295 (1,8,6) -48.1521 (1,9,5) 15.6460
(1,8,6): (1,7,6) 55.7476 (1,8,5) 48.1521 (1,8,7) 48.1439 (1,9,6) 55.5528
(1,8,7): (1,7,7) 15.7710 (1,8,6) -48.1439 (1,8,8) 16.0070 (1,9,7) 15.6483
(1,8,8): (1,7,8) 4.78703 (1,8,7) -16.0070 (1,8,9) 5.62424 (1,9,8) 4.73395
(1,8,9): (1,7,9) 1.53933 (1,8,8) -5.62424 (1,8,10) 1.83123 (1,9,9) 1.50080
(1,8,10): (1,7,10) 0.625403 (1,8,9) -1.83123 (1,9,10) 0.589247
(1,9,1): (1,8,1) -0.177215 (1,9,2) -0.377992 (1,10,1) 0.333157
(1,9,2): (1,8,2) -0.463927 (1,9,1) 0.377992 (1,9,3) -1.05392 (1,10,2) 0.794307
(1,9,3): (1,8,3) -1.46415 (1,9,2) 1.05392 (1,9,4) -2.40484 (1,10,3) 2.27337
(1,9,4): (1,8,4) -4.72396 (1,9,3) 2.40484 (1,9,5) -5.06372 (1,10,4) 6.67698
(1,9,5): (1,8,5) -15.6460 (1,9,4) 5.06372 (1,9,6) -10.9959 (1,10,5) 20.8214
(1,9,6): (1,8,6) -55.5528 (1,9,5) 10.9959 (1,9,7) 10.9930 (1,10,6) 32.9308
(1,9,7): (1,8,7) -15.6483 (1,9,6) -10.9930 (1,9,8) 5.05175 (1,10,7) 20.8275
(1,9,8): (1,8,8) -4.73395 (1,9,7) -5.05175 (1,9,9) 2.36119 (1,10,8) 6.69891
(1,9,9): (1,8,9) -1.50080 (1,9,8) -2.36119 (1,9,10) 0.916602 (1,10,9) 2.34631
(1,9,10): (1,8,10) -0.589247 (1,9,9) -0.916602 (1,10,10) 1.02412
(1,10,1): (1,9,1) -0.333157 (1,10,2) 8.131801E-02 (1,11,1) 0.177523
(1,10,2): (1,9,2) -0.794307 (1,10,1) -8.131801E-02 (1,10,3) 0.409184 (1,11,2) 0.331375
(1,10,3): (1,9,3) -2.27337 (1,10,2) -0.409184 (1,10,4) 1.85800 (1,11,3) 0.582487
(1,10,4): (1,9,4) -6.67698 (1,10,3) -1.85800 (1,10,5) 7.88625 (1,11,4) 0.248910
(1,10,5): (1,9,5) -20.8214 (1,10,4) -7.88625 (1,10,6) -0.935352 (1,11,5) -4.80400
(1,10,6): (1,9,6) -32.9308 (1,10,5) 0.935352 (1,10,7) 0.937975 (1,11,6) -3.41667
(1,10,7): (1,9,7) -20.8275 (1,10,6) -0.937975 (1,10,8) -7.88191 (1,11,7) -4.79993
(1,10,8): (1,9,8) -6.69891 (1,10,7) 7.88191 (1,10,9) -1.84974 (1,11,8) 0.262865
(1,10,9): (1,9,9) -2.34631 (1,10,8) 1.84974 (1,10,10) -0.388615 (1,11,9) 0.625112
(1,10,10): (1,9,10) -1.02412 (1,10,9) 0.388615 (1,11,10) 0.447687
(1,11,1): (1,10,1) -0.177523 (1,11,2) 0.235024 (1,12,1) 3.107855E-03
(1,11,2): (1,10,2) -0.331375 (1,11,1) -0.235024 (1,11,3) 0.660486 (1,12,2) -3.155140E-02
(1,11,3): (1,10,3) -0.582487 (1,11,2) -0.660486 (1,11,4) 1.52029 (1,12,3) -0.211827
(1,11,4): (1,10,4) -0.248910 (1,11,3) -1.52029 (1,11,5) 2.70375 (1,12,4) -0.876341
(1,11,5): (1,10,5) 4.80400 (1,11,4) -2.70375 (1,11,6) 0.409629 (1,12,5) -2.51091
(1,11,6): (1,10,6) 3.41667 (1,11,5) -0.409629 (1,11,7) -0.403102 (1,12,6) -2.59826
(1,11,7): (1,10,7) 4.79993 (1,11,6) 0.403102 (1,11,8) -2.68933 (1,12,7) -2.51061
(1,11,8): (1,10,8) -0.262865 (1,11,7) 2.68933 (1,11,9) -1.48319 (1,12,8) -0.875218
(1,11,9): (1,10,9) -0.625112 (1,11,8) 1.48319 (1,11,10) -0.565939 (1,12,9) -0.209420
(1,11,10): (1,10,10) -0.447687 (1,11,9) 0.565939 (1,12,10) -3.195551E-02
(1,12,1): (1,11,1) -3.107855E-03 (1,12,2) 0.200295 (1,13,1) -7.191619E-02
(1,12,2): (1,11,2) 3.155140E-02 (1,12,1) -0.200295 (1,12,3) 0.479420 (1,13,2) -0.149236
(1,12,3): (1,11,3) 0.211827 (1,12,2) -0.479420 (1,12,4) 0.851730 (1,13,3) -0.359189
(1,12,4): (1,11,4) 0.876341 (1,12,3) -0.851730 (1,12,5) 1.06637 (1,13,4) -0.794716
(1,12,5): (1,11,5) 2.51091 (1,12,4) -1.06637 (1,12,6) 0.323810 (1,13,5) -1.42304
(1,12,6): (1,11,6) 2.59826 (1,12,5) -0.323810 (1,12,7) -0.316993 (1,13,6) -1.58599
(1,12,7): (1,11,7) 2.51061 (1,12,6) 0.316993 (1,12,8) -1.05134 (1,13,7) -1.42480
(1,12,8): (1,11,8) 0.875218 (1,12,7) 1.05134 (1,12,9) -0.813565 (1,13,8) -0.800482
(1,12,9): (1,11,9) 0.209420 (1,12,8) 0.813565 (1,12,10) -0.387856 (1,13,9) -0.376021
(1,12,10): (1,11,10) 3.195551E-02 (1,12,9) 0.387856 (1,13,10) -0.196170
(1,13,1): (1,12,1) 7.191619E-02 (1,13,2) 0.122936 (1,14,1) -6.989517E-02
(1,13,2): (1,12,2) 0.149236 (1,13,1) -0.122936 (1,13,3) 0.269221 (1,14,2) -0.128185
(1,13,3): (1,12,3) 0.359189 (1,13,2) -0.269221 (1,13,4) 0.415964 (1,14,3) -0.263648
(1,13,4): (1,12,4) 0.794716 (1,13,3) -0.415964 (1,13,5) 0.440145 (1,14,4) -0.489852
(1,13,5): (1,12,5) 1.42304 (1,13,4) -0.440145 (1,13,6) 0.162743 (1,14,5) -0.747071
(1,13,6): (1,12,6) 1.58599 (1,13,5) -0.162743 (1,13,7) -0.157681 (1,14,6) -0.837867
(1,13,7): (1,12,7) 1.42480 (1,13,6) 0.157681 (1,13,8) -0.429198 (1,14,7) -0.748986
(1,13,8): (1,12,8) 0.800482 (1,13,7) 0.429198 (1,13,9) -0.389051 (1,14,8) -0.496036
(1,13,9): (1,12,9) 0.376021 (1,13,8) 0.389051 (1,13,10) -0.207985 (1,14,9) -0.280850
(1,13,10): (1,12,10) 0.196170 (1,13,9) 0.207985 (1,14,10) -0.172142
(1,14,1): (1,13,1) 6.989517E-02 (1,14,2) 6.464929E-02 (1,15,1) -3.769809E-02
(1,14,2): (1,13,2) 0.128185 (1,14,1) -6.464929E-02 (1,14,3) 0.133750 (1,15,2) -6.554184E-02
(1,14,3): (1,13,3) 0.263648 (1,14,2) -0.133750 (1,14,4) 0.189922 (1,15,3) -0.125961
(1,14,4): (1,13,4) 0.489852 (1,14,3) -0.189922 (1,14,5) 0.183688 (1,15,4) -0.217217
(1,14,5): (1,13,5) 0.747071 (1,14,4) -0.183688 (1,14,6) 7.253343E-02 (1,15,5) -0.310424
(1,14,6): (1,13,6) 0.837867 (1,14,5) -7.253343E-02 (1,14,7) -6.937805E-02 (1,15,6) -0.346496
(1,14,7): (1,13,7) 0.748986 (1,14,6) 6.937805E-02 (1,14,8) -0.177028 (1,15,7) -0.311516
(1,14,8): (1,13,8) 0.496036 (1,14,7) 0.177028 (1,14,9) -0.174090 (1,15,8) -0.220703
(1,14,9): (1,13,9) 0.280850 (1,14,8) 0.174090 (1,14,10) -9.935434E-02 (1,15,9) -0.135424
(1,14,10): (1,13,10) 0.172142 (1,14,9) 9.935434E-02 (1,15,10) -8.878859E-02
(1,15,1): (1,14,1) 3.769809E-02 (1,15,2) 3.680578E-02
(1,15,2): (1,14,2) 6.554184E-02 (1,15,1) -3.680578E-02 (1,15,3) 7.332679E-02
(1,15,3): (1,14,3) 0.125961 (1,15,2) -7.332679E-02 (1,15,4) 9.869089E-02
(1,15,4): (1,14,4) 0.217217 (1,15,3) -9.869089E-02 (1,15,5) 9.059707E-02
(1,15,5): (1,14,5) 0.310424 (1,15,4) -9.059707E-02 (1,15,6) 3.655819E-02
(1,15,6): (1,14,6) 0.346496 (1,15,5) -3.655819E-02 (1,15,7) -3.449263E-02
(1,15,7): (1,14,7) 0.311516 (1,15,6) 3.449263E-02 (1,15,8) -8.633446E-02
(1,15,8): (1,14,8) 0.220703 (1,15,7) 8.633446E-02 (1,15,9) -8.885065E-02
(1,15,9): (1,14,9) 0.135424 (1,15,8) 8.885065E-02 (1,15,10) -5.273541E-02
(1,15,10): (1,14,10) 8.878859E-02 (1,15,9) 5.273541E-02

 WEL PACKAGE (WEL-1) FLOW RATES   PERIOD      2   STEP       64
 ----------------------------------------------------------------------------------------
   NUMBER   CELLID                    RATE       NAME                                    
 ----------------------------------------------------------------------------------------
     1      (1,8,6)              -207.69637      WEL                                     
 ----------------------------------------------------------------------------------------




 DRN PACKAGE (DRN-0) FLOW RATES   PERIOD      2   STEP       64
 ----------------------------------------------------------------------------------------
   NUMBER   CELLID                    RATE       NAME                                    
 ----------------------------------------------------------------------------------------
     1      (1,1,1)               0.0000000      SURF                                    
     2      (1,1,2)               0.0000000      SURF                                    
     3      (1,1,3)               0.0000000      SURF                                    
     4      (1,1,4)               0.0000000      SURF                                    
     5      (1,1,5)               0.0000000      SURF                                    
     6      (1,1,6)               0.0000000      SURF                                    
     7      (1,1,7)               0.0000000      SURF                                    
     8      (1,1,8)               0.0000000      SURF                                    
     9      (1,1,9)               0.0000000      SURF                                    
     10     (1,1,10)              0.0000000      SURF                                    
     11     (1,2,1)               0.0000000      SURF                                    
     12     (1,2,2)               0.0000000      SURF                                    
     13     (1,2,3)               0.0000000      SURF                                    
     14     (1,2,4)               0.0000000      SURF                                    
     15     (1,2,5)               0.0000000      SURF                                    
     16     (1,2,6)               0.0000000      SURF                                    
     17     (1,2,7)               0.0000000      SURF                                    
     18     (1,2,8)               0.0000000      SURF                                    
     19     (1,2,9)               0.0000000      SURF                                    
     20     (1,2,10)              0.0000000      SURF                                    
     21     (1,3,1)               0.0000000      SURF                                    
     22     (1,3,2)               0.0000000      SURF                                    
     23     (1,3,3)               0.0000000      SURF                                    
     24     (1,3,4)               0.0000000      SURF                                    
     25     (1,3,5)               0.0000000      SURF                                    
     26     (1,3,6)               0.0000000      SURF                                    
     27     (1,3,7)               0.0000000      SURF                                    
     28     (1,3,8)               0.0000000      SURF                                    
     29     (1,3,9)               0.0000000      SURF                                    
     30     (1,3,10)              0.0000000      SURF                                    
     31     (1,4,1)               0.0000000      SURF                                    
     32     (1,4,2)               0.0000000      SURF                                    
     33     (1,4,3)               0.0000000      SURF                                    
     34     (1,4,4)               0.0000000      SURF                                    
     35     (1,4,5)               0.0000000      SURF                                    
     36     (1,4,6)               0.0000000      SURF                                    
     37     (1,4,7)               0.0000000      SURF                                    
     38     (1,4,8)               0.0000000      SURF                                    
     39     (1,4,9)               0.0000000      SURF                                    
     40     (1,4,10)              0.0000000      SURF                                    
     41     (1,5,1)               0.0000000      SURF                                    
     42     (1,5,2)               0.0000000      SURF                                    
     43     (1,5,3)               0.0000000      SURF                                    
     44     (1,5,4)               0.0000000      SURF                                    
     45     (1,5,5)               0.0000000      SURF                                    
     46     (1,5,6)               0.0000000      SURF                                    
     47     (1,5,7)               0.0000000      SURF                                    
     48     (1,5,8)               0.0000000      SURF                                    
     49     (1,5,9)               0.0000000      SURF                                    
     50     (1,5,10)              0.0000000      SURF                                    
     51     (1,6,1)               0.0000000      SURF                                    
     52     (1,6,2)               0.0000000      SURF                                    
     53     (1,6,3)               0.0000000      SURF                                    
     54     (1,6,4)               0.0000000      SURF                                    
     55     (1,6,5)               0.0000000      SURF                                    
     56     (1,6,6)               0.0000000      SURF                                    
     57     (1,6,7)              -3.29629984E-07 SURF                                    
     58     (1,6,8)               0.0000000      SURF                                    
     59     (1,6,9)               0.0000000      SURF                                    
     60     (1,6,10)              0.0000000      SURF                                    
     61     (1,7,1)               0.0000000      SURF                                    
     62     (1,7,2)               0.0000000      SURF                                    
     63     (1,7,3)               0.0000000      SURF                                    
     64     (1,7,4)               0.0000000      SURF                                    
     65     (1,7,5)               0.0000000      SURF                                    
     66     (1,7,6)               0.0000000      SURF                                    
     67     (1,7,7)               0.0000000      SURF                                    
     68     (1,7,8)               0.0000000      SURF                                    
     69     (1,7,9)               0.0000000      SURF                                    
     70     (1,7,10)              0.0000000      SURF                                    
     71     (1,8,1)               0.0000000      SURF                                    
     72     (1,8,2)               0.0000000      SURF                                    
     73     (1,8,3)               0.0000000      SURF                                    
     74     (1,8,4)               0.0000000      SURF                                    
     75     (1,8,5)               0.0000000      SURF                                    
     76     (1,8,6)               0.0000000      SURF                                    
     77     (1,8,7)               0.0000000      SURF                                    
     78     (1,8,8)               0.0000000      SURF                                    
     79     (1,8,9)               0.0000000      SURF                                    
     80     (1,8,10)              0.0000000      SURF                                    
     81     (1,9,1)               0.0000000      SURF                                    
     82     (1,9,2)               0.0000000      SURF                                    
     83     (1,9,3)               0.0000000      SURF                                    
     84     (1,9,4)               0.0000000      SURF                                    
     85     (1,9,5)               0.0000000      SURF                                    
     86     (1,9,6)               0.0000000      SURF                                    
     87     (1,9,7)               0.0000000      SURF                                    
     88     (1,9,8)               0.0000000      SURF                                    
     89     (1,9,9)               0.0000000      SURF                                    
     90     (1,9,10)              0.0000000      SURF                                    
     91     (1,10,1)              0.0000000      SURF                                    
     92     (1,10,2)              0.0000000      SURF                                    
     93     (1,10,3)              0.0000000      SURF                                    
     94     (1,10,4)              0.0000000      SURF                                    
     95     (1,10,5)              0.0000000      SURF                                    
     96     (1,10,6)              0.0000000      SURF                                    
     97     (1,10,7)              0.0000000      SURF                                    
     98     (1,10,8)              0.0000000      SURF                                    
     99     (1,10,9)              0.0000000      SURF                                    
    100     (1,10,10)             0.0000000      SURF                                    
    101     (1,11,1)              0.0000000      SURF                                    
    102     (1,11,2)              0.0000000      SURF                                    
    103     (1,11,3)              0.0000000      SURF                                    
    104     (1,11,4)              0.0000000      SURF                                    
    105     (1,11,5)              0.0000000      SURF                                    
    106     (1,11,6)              0.0000000      SURF                                    
    107     (1,11,7)              0.0000000      SURF                                    
    108     (1,11,8)              0.0000000      SURF                                    
    109     (1,11,9)              0.0000000      SURF                                    
    110     (1,11,10)             0.0000000      SURF                                    
    111     (1,12,1)              0.0000000      SURF                                    
    112     (1,12,2)              0.0000000      SURF                                    
    113     (1,12,3)              0.0000000      SURF                                    
    114     (1,12,4)              0.0000000      SURF                                    
    115     (1,12,5)              0.0000000      SURF                                    
    116     (1,12,6)              0.0000000      SURF                                    
    117     (1,12,7)              0.0000000      SURF                                    
    118     (1,12,8)              0.0000000      SURF                                    
    119     (1,12,9)              0.0000000      SURF                                    
    120     (1,12,10)             0.0000000      SURF                                    
    121     (1,13,1)              0.0000000      SURF                                    
    122     (1,13,2)              0.0000000      SURF                                    
    123     (1,13,3)              0.0000000      SURF                                    
    124     (1,13,4)              0.0000000      SURF                                    
    125     (1,13,5)              0.0000000      SURF                                    
    126     (1,13,6)              0.0000000      SURF                                    
    127     (1,13,7)              0.0000000      SURF                                    
    128     (1,13,8)              0.0000000      SURF                                    
    129     (1,13,9)              0.0000000      SURF                                    
    130     (1,13,10)             0.0000000      SURF                                    
    131     (1,14,1)              0.0000000      SURF                                    
    132     (1,14,2)              0.0000000      SURF                                    
    133     (1,14,3)              0.0000000      SURF                                    
    134     (1,14,4)              0.0000000      SURF                                    
    135     (1,14,5)              0.0000000      SURF                                    
    136     (1,14,6)              0.0000000      SURF                                    
    137     (1,14,7)              0.0000000      SURF                                    
    138     (1,14,8)              0.0000000      SURF                                    
    139     (1,14,9)              0.0000000      SURF                                    
    140     (1,14,10)             0.0000000      SURF                                    
    141     (1,15,1)              0.0000000      SURF                                    
    142     (1,15,2)              0.0000000      SURF                                    
    143     (1,15,3)              0.0000000      SURF                                    
    144     (1,15,4)              0.0000000      SURF                                    
    145     (1,15,5)              0.0000000      SURF                                    
    146     (1,15,6)              0.0000000      SURF                                    
    147     (1,15,7)              0.0000000      SURF                                    
    148     (1,15,8)              0.0000000      SURF                                    
    149     (1,15,9)              0.0000000      SURF                                    
    150     (1,15,10)             0.0000000      SURF                                    
 ----------------------------------------------------------------------------------------




 API PACKAGE (MAR) FLOW RATES   PERIOD      2   STEP       64
 -----------------------------------------------
   NUMBER   CELLID                    RATE      
 -----------------------------------------------
     1      (1,6,5)               35.542291     
     2      (1,6,6)               35.542291     
     3      (1,6,7)               35.542291     
     4      (1,10,5)              33.689832     
     5      (1,10,6)              33.689832     
     6      (1,10,7)              33.689832     
 -----------------------------------------------



1
  HEAD IN LAYER   1 AT END OF TIME STEP  64 IN STRESS PERIOD    2
  ---------------------------------------------------------------------------

            1           2           3           4           5           6           7           8           9          10
 ........................................................................................................................
   1   7.7466E-03  1.1913E-02  2.0086E-02  3.0893E-02  4.0683E-02  4.4631E-02  4.0960E-02  3.1715E-02  2.2111E-02  1.6359E-02
   2   1.2065E-02  1.9155E-02  3.3573E-02  5.3660E-02  7.2819E-02  8.0381E-02  7.3231E-02  5.4899E-02  3.6691E-02  2.6192E-02
   3   1.9968E-02  3.3069E-02  6.1223E-02  0.1039      0.1483      0.1648      0.1490      0.1058      6.6296E-02  4.4922E-02
   4   2.8051E-02  4.8964E-02  9.7987E-02  0.1833      0.2886      0.3205      0.2894      0.1859      0.1050      6.5879E-02
   5   2.8115E-02  5.2433E-02  0.1192      0.2698      0.5327      0.5727      0.5335      0.2723      0.1261      6.9524E-02
   6   9.8573E-03  1.8725E-02  6.1015E-02  0.2487      0.9996      0.9187       1.000      0.2498      6.3514E-02  2.4017E-02
   7  -2.4968E-02 -6.2482E-02 -0.1679     -0.4109     -0.9329      -2.145     -0.9331     -0.4120     -0.1730     -8.0831E-02
   8  -4.4928E-02 -0.1118     -0.3201     -0.9087      -2.672      -9.243      -2.672     -0.9113     -0.3297     -0.1439    
   9  -2.7159E-02 -6.5061E-02 -0.1711     -0.4158     -0.9442      -2.158     -0.9444     -0.4173     -0.1769     -8.4455E-02
  10   6.1367E-03  1.4257E-02  5.4952E-02  0.2365      0.9563      0.8709      0.9565      0.2371      5.6419E-02  1.7776E-02
  11   2.3847E-02  4.7239E-02  0.1126      0.2607      0.5178      0.5566      0.5184      0.2627      0.1182      6.2267E-02
  12   2.4157E-02  4.4098E-02  9.1605E-02  0.1753      0.2791      0.3105      0.2797      0.1774      9.7503E-02  5.9092E-02
  13   1.6982E-02  2.9240E-02  5.6012E-02  9.7208E-02  0.1406      0.1566      0.1411      9.8788E-02  6.0264E-02  3.9590E-02
  14   1.0005E-02  1.6459E-02  2.9794E-02  4.8695E-02  6.6941E-02  7.4141E-02  6.7254E-02  4.9670E-02  3.2347E-02  2.2444E-02
  15   6.2387E-03  9.9157E-03  1.7236E-02  2.7078E-02  3.6105E-02  3.9747E-02  3.6311E-02  2.7709E-02  1.8848E-02  1.3585E-02

 HEAD WILL BE SAVED ON UNIT 1100 AT END OF TIME STEP   64, STRESS PERIOD    2


  VOLUME BUDGET FOR ENTIRE MODEL AT END OF TIME STEP   64, STRESS PERIOD   2
  ---------------------------------------------------------------------------------------------------

     CUMULATIVE VOLUME      L**3       RATES FOR THIS TIME STEP      L**3/T          PACKAGE NAME    
     ------------------                 ------------------------                     ----------------

           IN:                                      IN:
           ---                                      ---
              STO-SS =          23.2541                STO-SS =       1.0392E-02     STORAGE                          
              STO-SY =       57952.1359                STO-SY =          21.8244     STORAGE                          
                 WEL =           0.0000                   WEL =           0.0000     WEL-1                            
                 DRN =           0.0000                   DRN =           0.0000     DRN-0                            
                 API =      130602.2036                   API =         207.6964     MAR                              
                 CHD =       2.0279E-08                   CHD =           0.0000     CHD_0                            

            TOTAL IN =      188577.5935              TOTAL IN =         229.5312

          OUT:                                     OUT:
          ----                                     ----
              STO-SS =          19.6701                STO-SS =       1.1042E-02     STORAGE                          
              STO-SY =       38386.9134                STO-SY =          21.8237     STORAGE                          
                 WEL =      150171.0098                   WEL =         207.6964     WEL-1                            
                 DRN =       2.1519E-04                   DRN =       3.2963E-07     DRN-0                            
                 API =           0.0000                   API =           0.0000     MAR                              
                 CHD =       2.0705E-08                   CHD =           0.0000     CHD_0                            

           TOTAL OUT =      188577.5935             TOTAL OUT =         229.5312

            IN - OUT =      -1.1443E-06              IN - OUT =       8.5078E-10

 PERCENT DISCREPANCY =          -0.00     PERCENT DISCREPANCY =           0.00




         TIME SUMMARY AT END OF TIME STEP   64 IN STRESS PERIOD    2
                    SECONDS     MINUTES      HOURS       DAYS        YEARS
                    -----------------------------------------------------------
   TIME STEP LENGTH 8.64000E+05  14400.      240.00      10.000     2.73785E-02
 STRESS PERIOD TIME 5.52960E+07 9.21600E+05  15360.      640.00      1.7522    
         TOTAL TIME 5.53824E+07 9.23040E+05  15384.      641.00      1.7550    


end timestep


start timestep kper="2" kstp="65" mode="normal"

 UBDSV1 SAVING           STO-SS ON UNIT   1099 AT TIME STEP     65, STRESS PERIOD      2
 UBDSV1 SAVING           STO-SY ON UNIT   1099 AT TIME STEP     65, STRESS PERIOD      2
 UBDSV1 SAVING     FLOW-JA-FACE ON UNIT   1099 AT TIME STEP     65, STRESS PERIOD      2
 UBDSV06 SAVING       DATA-SPDIS IN MODEL GWF              PACKAGE NPF             CONNECTED TO MODEL GWF              PACKAGE NPF              ON UNIT   1099 AT TIME STEP     65, STRESS PERIOD      2
 UBDSV06 SAVING              WEL IN MODEL GWF              PACKAGE GWF             CONNECTED TO MODEL GWF              PACKAGE WEL-1            ON UNIT   1099 AT TIME STEP     65, STRESS PERIOD      2
 UBDSV06 SAVING              DRN IN MODEL GWF              PACKAGE GWF             CONNECTED TO MODEL GWF              PACKAGE DRN-0            ON UNIT   1099 AT TIME STEP     65, STRESS PERIOD      2
 UBDSV06 SAVING              API IN MODEL GWF              PACKAGE GWF             CONNECTED TO MODEL GWF              PACKAGE MAR              ON UNIT   1099 AT TIME STEP     65, STRESS PERIOD      2
 UBDSV06 SAVING              CHD IN MODEL GWF              PACKAGE GWF             CONNECTED TO MODEL GWF              PACKAGE CHD_0            ON UNIT   1099 AT TIME STEP     65, STRESS PERIOD      2

    CALCULATED INTERCELL FLOW FOR PERIOD 2 STEP 65
(1,1,1): (1,1,2) 4.310881E-02 (1,2,1) 4.431200E-02
(1,1,2): (1,1,1) -4.310881E-02 (1,1,3) 8.434809E-02 (1,2,2) 7.390972E-02
(1,1,3): (1,1,2) -8.434809E-02 (1,1,4) 0.111253 (1,2,3) 0.137172
(1,1,4): (1,1,3) -0.111253 (1,1,5) 0.100619 (1,2,4) 0.231336
(1,1,5): (1,1,4) -0.100619 (1,1,6) 4.060291E-02 (1,2,5) 0.326663
(1,1,6): (1,1,5) -4.060291E-02 (1,1,7) -3.760568E-02 (1,2,6) 0.363564
(1,1,7): (1,1,6) 3.760568E-02 (1,1,8) -9.479847E-02 (1,2,7) 0.328095
(1,1,8): (1,1,7) 9.479847E-02 (1,1,9) -9.855714E-02 (1,2,8) 0.235711
(1,1,9): (1,1,8) 9.855714E-02 (1,1,10) -5.908288E-02 (1,2,9) 0.148483
(1,1,10): (1,1,9) 5.908288E-02 (1,2,10) 0.100467
(1,2,1): (1,1,1) -4.431200E-02 (1,2,2) 7.270617E-02 (1,3,1) 8.043810E-02
(1,2,2): (1,1,2) -7.390972E-02 (1,2,1) -7.270617E-02 (1,2,3) 0.147617 (1,3,2) 0.141076
(1,2,3): (1,1,3) -0.137172 (1,2,2) -0.147617 (1,2,4) 0.205392 (1,3,3) 0.280097
(1,2,4): (1,1,4) -0.231336 (1,2,3) -0.205392 (1,2,5) 0.195824 (1,3,4) 0.509697
(1,2,5): (1,1,5) -0.326663 (1,2,4) -0.195824 (1,2,6) 7.740094E-02 (1,3,5) 0.769653
(1,2,6): (1,1,6) -0.363564 (1,2,5) -7.740094E-02 (1,2,7) -7.297345E-02 (1,3,6) 0.861421
(1,2,7): (1,1,7) -0.328095 (1,2,6) 7.297345E-02 (1,2,8) -0.187055 (1,3,7) 0.772139
(1,2,8): (1,1,8) -0.235711 (1,2,7) 0.187055 (1,2,9) -0.185742 (1,3,8) 0.517343
(1,2,9): (1,1,9) -0.148483 (1,2,8) 0.185742 (1,2,10) -0.107080 (1,3,9) 0.300266
(1,2,10): (1,1,10) -0.100467 (1,2,9) 0.107080 (1,3,10) 0.190175
(1,3,1): (1,2,1) -8.043810E-02 (1,3,2) 0.133339 (1,4,1) 8.076865E-02
(1,3,2): (1,2,2) -0.141076 (1,3,1) -0.133339 (1,3,3) 0.286648 (1,4,2) 0.159014
(1,3,3): (1,2,3) -0.280097 (1,3,2) -0.286648 (1,3,4) 0.434824 (1,4,3) 0.369961
(1,3,4): (1,2,4) -0.509697 (1,3,3) -0.434824 (1,3,5) 0.454992 (1,4,4) 0.807210
(1,3,5): (1,2,5) -0.769653 (1,3,4) -0.454992 (1,3,6) 0.168563 (1,4,5) 1.44191
(1,3,6): (1,2,6) -0.861421 (1,3,5) -0.168563 (1,3,7) -0.161659 (1,4,6) 1.60637
(1,3,7): (1,2,7) -0.772139 (1,3,6) 0.161659 (1,3,8) -0.441040 (1,4,7) 1.44422
(1,3,8): (1,2,8) -0.517343 (1,3,7) 0.441040 (1,3,9) -0.402577 (1,4,8) 0.814304
(1,3,9): (1,2,9) -0.300266 (1,3,8) 0.402577 (1,3,10) -0.217081 (1,4,9) 0.389321
(1,3,10): (1,2,10) -0.190175 (1,3,9) 0.217081 (1,4,10) 0.209923
(1,4,1): (1,3,1) -8.076865E-02 (1,4,2) 0.211625 (1,5,1) -2.898457E-03
(1,4,2): (1,3,2) -0.159014 (1,4,1) -0.211625 (1,4,3) 0.497858 (1,5,2) 2.969335E-02
(1,4,3): (1,3,3) -0.369961 (1,4,2) -0.497858 (1,4,4) 0.872346 (1,5,3) 0.207341
(1,4,4): (1,3,4) -0.807210 (1,4,3) -0.872346 (1,4,5) 1.08760 (1,5,4) 0.879425
(1,4,5): (1,3,5) -1.44191 (1,4,4) -1.08760 (1,4,6) 0.331102 (1,5,5) 2.56315
(1,4,6): (1,3,6) -1.60637 (1,4,5) -0.331102 (1,4,7) -0.321900 (1,5,6) 2.65998
(1,4,7): (1,3,7) -1.44422 (1,4,6) 0.321900 (1,4,8) -1.06875 (1,5,7) 2.56300
(1,4,8): (1,3,8) -0.814304 (1,4,7) 1.06875 (1,4,9) -0.827613 (1,5,8) 0.878540
(1,4,9): (1,3,9) -0.389321 (1,4,8) 0.827613 (1,4,10) -0.396491 (1,5,9) 0.205064
(1,4,10): (1,3,10) -0.209923 (1,4,9) 0.396491 (1,5,10) 2.943723E-02
(1,5,1): (1,4,1) 2.898457E-03 (1,5,2) 0.244286 (1,6,1) -0.189977
(1,5,2): (1,4,2) -2.969335E-02 (1,5,1) -0.244286 (1,5,3) 0.676318 (1,6,2) -0.348562
(1,5,3): (1,4,3) -0.207341 (1,5,2) -0.676318 (1,5,4) 1.54868 (1,6,3) -0.602983
(1,5,4): (1,4,4) -0.879425 (1,5,3) -1.54868 (1,5,5) 2.77448 (1,6,4) -0.232758
(1,5,5): (1,4,5) -2.56315 (1,5,4) -2.77448 (1,5,6) 0.426192 (1,6,5) 5.12430
(1,5,6): (1,4,6) -2.65998 (1,5,5) -0.426192 (1,5,7) -0.417123 (1,6,6) 3.76824
(1,5,7): (1,4,7) -2.56300 (1,5,6) 0.417123 (1,5,8) -2.75611 (1,6,7) 5.11969
(1,5,8): (1,4,8) -0.878540 (1,5,7) 2.75611 (1,5,9) -1.50507 (1,6,8) -0.248226
(1,5,9): (1,4,9) -0.205064 (1,5,8) 1.50507 (1,5,10) -0.572747 (1,6,9) -0.649044
(1,5,10): (1,4,10) -2.943723E-02 (1,5,9) 0.572747 (1,6,10) -0.471805
(1,6,1): (1,5,1) 0.189977 (1,6,2) 8.586427E-02 (1,7,1) -0.355909
(1,6,2): (1,5,2) 0.348562 (1,6,1) -8.586427E-02 (1,6,3) 0.421717 (1,7,2) -0.823885
(1,6,3): (1,5,3) 0.602983 (1,6,2) -0.421717 (1,6,4) 1.92363 (1,7,3) -2.31838
(1,6,4): (1,5,4) 0.232758 (1,6,3) -1.92363 (1,6,5) 8.27077 (1,7,4) -6.77948
(1,6,5): (1,5,5) -5.12430 (1,6,4) -8.27077 (1,6,6) -0.884948 (1,7,5) -21.2827
(1,6,6): (1,5,6) -3.76824 (1,6,5) 0.884948 (1,6,7) 0.889607 (1,7,6) -33.4773
(1,6,7): (1,5,7) -5.11969 (1,6,6) -0.889607 (1,6,8) -8.26335 (1,7,7) -21.2902
(1,6,8): (1,5,8) 0.248226 (1,6,7) 8.26335 (1,6,9) -1.91077 (1,7,8) -6.80445
(1,6,9): (1,5,9) 0.649044 (1,6,8) 1.91077 (1,6,10) -0.395639 (1,7,9) -2.39765
(1,6,10): (1,5,10) 0.471805 (1,6,9) 0.395639 (1,7,10) -1.06529
(1,7,1): (1,6,1) 0.355909 (1,7,2) -0.380126 (1,8,1) -0.202234
(1,7,2): (1,6,2) 0.823885 (1,7,1) 0.380126 (1,7,3) -1.05613 (1,8,2) -0.494040
(1,7,3): (1,6,3) 2.31838 (1,7,2) 1.05613 (1,7,4) -2.39243 (1,8,3) -1.50286
(1,7,4): (1,6,4) 6.77948 (1,7,3) 2.39243 (1,7,5) -4.99805 (1,8,4) -4.78180
(1,7,5): (1,6,5) 21.2827 (1,7,4) 4.99805 (1,7,6) -10.9820 (1,8,5) -15.7726
(1,7,6): (1,6,6) 33.4773 (1,7,5) 10.9820 (1,7,7) 10.9801 (1,8,6) -55.7297
(1,7,7): (1,6,7) 21.2902 (1,7,6) -10.9801 (1,7,8) 4.98727 (1,8,7) -15.7764
(1,7,8): (1,6,8) 6.80445 (1,7,7) -4.98727 (1,7,9) 2.35000 (1,8,8) -4.79528
(1,7,9): (1,6,9) 2.39765 (1,7,8) -2.35000 (1,7,10) 0.919047 (1,8,9) -1.54654
(1,7,10): (1,6,10) 1.06529 (1,7,9) -0.919047 (1,8,10) -0.631429
(1,8,1): (1,7,1) 0.202234 (1,8,2) -0.672457 (1,9,1) 0.180476
(1,8,2): (1,7,2) 0.494040 (1,8,1) 0.672457 (1,8,3) -2.07079 (1,9,2) 0.468450
(1,8,3): (1,7,3) 1.50286 (1,8,2) 2.07079 (1,8,4) -5.70267 (1,9,3) 1.47003
(1,8,4): (1,7,4) 4.78180 (1,8,3) 5.70267 (1,8,5) -16.0169 (1,9,4) 4.72775
(1,8,5): (1,7,5) 15.7726 (1,8,4) 16.0169 (1,8,6) -48.1083 (1,9,5) 15.6367
(1,8,6): (1,7,6) 55.7297 (1,8,5) 48.1083 (1,8,7) 48.0995 (1,9,6) 55.5096
(1,8,7): (1,7,7) 15.7764 (1,8,6) -48.0995 (1,8,8) 15.9932 (1,9,7) 15.6391
(1,8,8): (1,7,8) 4.79528 (1,8,7) -15.9932 (1,8,9) 5.62680 (1,9,8) 4.73807
(1,8,9): (1,7,9) 1.54654 (1,8,8) -5.62680 (1,8,10) 1.83687 (1,9,9) 1.50752
(1,8,10): (1,7,10) 0.631429 (1,8,9) -1.83687 (1,9,10) 0.595585
(1,9,1): (1,8,1) -0.180476 (1,9,2) -0.383890 (1,10,1) 0.340448
(1,9,2): (1,8,2) -0.468450 (1,9,1) 0.383890 (1,9,3) -1.06308 (1,10,2) 0.804525
(1,9,3): (1,8,3) -1.47003 (1,9,2) 1.06308 (1,9,4) -2.41198 (1,10,3) 2.28753
(1,9,4): (1,8,4) -4.72775 (1,9,3) 2.41198 (1,9,5) -5.06453 (1,10,4) 6.69030
(1,9,5): (1,8,5) -15.6367 (1,9,4) 5.06453 (1,9,6) -10.9862 (1,10,5) 20.8135
(1,9,6): (1,8,6) -55.5096 (1,9,5) 10.9862 (1,9,7) 10.9830 (1,10,6) 32.9102
(1,9,7): (1,8,7) -15.6391 (1,9,6) -10.9830 (1,9,8) 5.05179 (1,10,7) 20.8199
(1,9,8): (1,8,8) -4.73807 (1,9,7) -5.05179 (1,9,9) 2.36641 (1,10,8) 6.71303
(1,9,9): (1,8,9) -1.50752 (1,9,8) -2.36641 (1,9,10) 0.921860 (1,10,9) 2.36241
(1,9,10): (1,8,10) -0.595585 (1,9,9) -0.921860 (1,10,10) 1.03839
(1,10,1): (1,9,1) -0.340448 (1,10,2) 7.831031E-02 (1,11,1) 0.184293
(1,10,2): (1,9,2) -0.804525 (1,10,1) -7.831031E-02 (1,10,3) 0.403795 (1,11,2) 0.341205
(1,10,3): (1,9,3) -2.28753 (1,10,2) -0.403795 (1,10,4) 1.84947 (1,11,3) 0.597755
(1,10,4): (1,9,4) -6.69030 (1,10,3) -1.84947 (1,10,5) 7.86413 (1,11,4) 0.271908
(1,10,5): (1,9,5) -20.8135 (1,10,4) -7.86413 (1,10,6) -0.936745 (1,11,5) -4.76200
(1,10,6): (1,9,6) -32.9102 (1,10,5) 0.936745 (1,10,7) 0.939335 (1,11,6) -3.37355
(1,10,7): (1,9,7) -20.8199 (1,10,6) -0.939335 (1,10,8) -7.86002 (1,11,7) -4.75768
(1,10,8): (1,9,8) -6.71303 (1,10,7) 7.86002 (1,10,9) -1.84195 (1,11,8) 0.286595
(1,10,9): (1,9,9) -2.36241 (1,10,8) 1.84195 (1,10,10) -0.384986 (1,11,9) 0.642186
(1,10,10): (1,9,10) -1.03839 (1,10,9) 0.384986 (1,11,10) 0.461355
(1,11,1): (1,10,1) -0.184293 (1,11,2) 0.235057 (1,12,1) 6.442608E-03
(1,11,2): (1,10,2) -0.341205 (1,11,1) -0.235057 (1,11,3) 0.660502 (1,12,2) -2.650934E-02
(1,11,3): (1,10,3) -0.597755 (1,11,2) -0.660502 (1,11,4) 1.51965 (1,12,3) -0.203716
(1,11,4): (1,10,4) -0.271908 (1,11,3) -1.51965 (1,11,5) 2.70027 (1,12,4) -0.864049
(1,11,5): (1,10,5) 4.76200 (1,11,4) -2.70027 (1,11,6) 0.409786 (1,12,5) -2.49251
(1,11,6): (1,10,6) 3.37355 (1,11,5) -0.409786 (1,11,7) -0.403045 (1,12,6) -2.57869
(1,11,7): (1,10,7) 4.75768 (1,11,6) 0.403045 (1,11,8) -2.68557 (1,12,7) -2.49209
(1,11,8): (1,10,8) -0.286595 (1,11,7) 2.68557 (1,11,9) -1.48222 (1,12,8) -0.862582
(1,11,9): (1,10,9) -0.642186 (1,11,8) 1.48222 (1,11,10) -0.565683 (1,12,9) -0.200421
(1,11,10): (1,10,10) -0.461355 (1,11,9) 0.565683 (1,12,10) -2.493896E-02
(1,12,1): (1,11,1) -6.442608E-03 (1,12,2) 0.202038 (1,13,1) -7.182867E-02
(1,12,2): (1,11,2) 2.650934E-02 (1,12,1) -0.202038 (1,12,3) 0.482504 (1,13,2) -0.148813
(1,12,3): (1,11,3) 0.203716 (1,12,2) -0.482504 (1,12,4) 0.855229 (1,13,3) -0.358154
(1,12,4): (1,11,4) 0.864049 (1,12,3) -0.855229 (1,12,5) 1.06880 (1,13,4) -0.792863
(1,12,5): (1,11,5) 2.49251 (1,12,4) -1.06880 (1,12,6) 0.325104 (1,13,5) -1.42011
(1,12,6): (1,11,6) 2.57869 (1,12,5) -0.325104 (1,12,7) -0.317966 (1,13,6) -1.58288
(1,12,7): (1,11,7) 2.49209 (1,12,6) 0.317966 (1,12,8) -1.05325 (1,13,7) -1.42189
(1,12,8): (1,11,8) 0.862582 (1,12,7) 1.05325 (1,12,9) -0.816175 (1,13,8) -0.798657
(1,12,9): (1,11,9) 0.200421 (1,12,8) 0.816175 (1,12,10) -0.389575 (1,13,9) -0.374973
(1,12,10): (1,11,10) 2.493896E-02 (1,12,9) 0.389575 (1,13,10) -0.195573
(1,13,1): (1,12,1) 7.182867E-02 (1,13,2) 0.125013 (1,14,1) -7.123989E-02
(1,13,2): (1,12,2) 0.148813 (1,13,1) -0.125013 (1,13,3) 0.272908 (1,14,2) -0.129874
(1,13,3): (1,12,3) 0.358154 (1,13,2) -0.272908 (1,13,4) 0.420261 (1,14,3) -0.265939
(1,13,4): (1,12,4) 0.792863 (1,13,3) -0.420261 (1,13,5) 0.443613 (1,14,4) -0.492830
(1,13,5): (1,12,5) 1.42011 (1,13,4) -0.443613 (1,13,6) 0.164202 (1,14,5) -0.750571
(1,13,6): (1,12,6) 1.58288 (1,13,5) -0.164202 (1,13,7) -0.158840 (1,14,6) -0.841631
(1,13,7): (1,12,7) 1.42189 (1,13,6) 0.158840 (1,13,8) -0.432161 (1,14,7) -0.752559
(1,13,8): (1,12,8) 0.798657 (1,13,7) 0.432161 (1,13,9) -0.392421 (1,14,8) -0.499198
(1,13,9): (1,12,9) 0.374973 (1,13,8) 0.392421 (1,13,10) -0.210150 (1,14,9) -0.283515
(1,13,10): (1,12,10) 0.195573 (1,13,9) 0.210150 (1,14,10) -0.174487
(1,14,1): (1,13,1) 7.123989E-02 (1,14,2) 6.638137E-02 (1,15,1) -3.879287E-02
(1,14,2): (1,13,2) 0.129874 (1,14,1) -6.638137E-02 (1,14,3) 0.136835 (1,15,2) -6.698541E-02
(1,14,3): (1,13,3) 0.265939 (1,14,2) -0.136835 (1,14,4) 0.193530 (1,15,3) -0.128018
(1,14,4): (1,13,4) 0.492830 (1,14,3) -0.193530 (1,14,5) 0.186634 (1,15,4) -0.219987
(1,14,5): (1,13,5) 0.750571 (1,14,4) -0.186634 (1,14,6) 7.373247E-02 (1,15,5) -0.313774
(1,14,6): (1,13,6) 0.841631 (1,14,5) -7.373247E-02 (1,14,7) -7.034941E-02 (1,15,6) -0.350089
(1,14,7): (1,13,7) 0.752559 (1,14,6) 7.034941E-02 (1,14,8) -0.179583 (1,15,7) -0.314919
(1,14,8): (1,13,8) 0.499198 (1,14,7) 0.179583 (1,14,9) -0.176963 (1,15,8) -0.223614
(1,14,9): (1,13,9) 0.283515 (1,14,8) 0.176963 (1,14,10) -0.101200 (1,15,9) -0.137784
(1,14,10): (1,13,10) 0.174487 (1,14,9) 0.101200 (1,15,10) -9.079403E-02
(1,15,1): (1,14,1) 3.879287E-02 (1,15,2) 3.818899E-02
(1,15,2): (1,14,2) 6.698541E-02 (1,15,1) -3.818899E-02 (1,15,3) 7.579637E-02
(1,15,3): (1,14,3) 0.128018 (1,15,2) -7.579637E-02 (1,15,4) 0.101586
(1,15,4): (1,14,4) 0.219987 (1,15,3) -0.101586 (1,15,5) 9.296428E-02
(1,15,5): (1,14,5) 0.313774 (1,15,4) -9.296428E-02 (1,15,6) 3.751534E-02
(1,15,6): (1,14,6) 0.350089 (1,15,5) -3.751534E-02 (1,15,7) -3.527540E-02
(1,15,7): (1,14,7) 0.314919 (1,15,6) 3.527540E-02 (1,15,8) -8.839994E-02
(1,15,8): (1,14,8) 0.223614 (1,15,7) 8.839994E-02 (1,15,9) -9.117164E-02
(1,15,9): (1,14,9) 0.137784 (1,15,8) 9.117164E-02 (1,15,10) -5.422752E-02
(1,15,10): (1,14,10) 9.079403E-02 (1,15,9) 5.422752E-02

 WEL PACKAGE (WEL-1) FLOW RATES   PERIOD      2   STEP       65
 ----------------------------------------------------------------------------------------
   NUMBER   CELLID                    RATE       NAME                                    
 ----------------------------------------------------------------------------------------
     1      (1,8,6)              -207.54369      WEL                                     
 ----------------------------------------------------------------------------------------




 DRN PACKAGE (DRN-0) FLOW RATES   PERIOD      2   STEP       65
 ----------------------------------------------------------------------------------------
   NUMBER   CELLID                    RATE       NAME                                    
 ----------------------------------------------------------------------------------------
     1      (1,1,1)               0.0000000      SURF                                    
     2      (1,1,2)               0.0000000      SURF                                    
     3      (1,1,3)               0.0000000      SURF                                    
     4      (1,1,4)               0.0000000      SURF                                    
     5      (1,1,5)               0.0000000      SURF                                    
     6      (1,1,6)               0.0000000      SURF                                    
     7      (1,1,7)               0.0000000      SURF                                    
     8      (1,1,8)               0.0000000      SURF                                    
     9      (1,1,9)               0.0000000      SURF                                    
     10     (1,1,10)              0.0000000      SURF                                    
     11     (1,2,1)               0.0000000      SURF                                    
     12     (1,2,2)               0.0000000      SURF                                    
     13     (1,2,3)               0.0000000      SURF                                    
     14     (1,2,4)               0.0000000      SURF                                    
     15     (1,2,5)               0.0000000      SURF                                    
     16     (1,2,6)               0.0000000      SURF                                    
     17     (1,2,7)               0.0000000      SURF                                    
     18     (1,2,8)               0.0000000      SURF                                    
     19     (1,2,9)               0.0000000      SURF                                    
     20     (1,2,10)              0.0000000      SURF                                    
     21     (1,3,1)               0.0000000      SURF                                    
     22     (1,3,2)               0.0000000      SURF                                    
     23     (1,3,3)               0.0000000      SURF                                    
     24     (1,3,4)               0.0000000      SURF                                    
     25     (1,3,5)               0.0000000      SURF                                    
     26     (1,3,6)               0.0000000      SURF                                    
     27     (1,3,7)               0.0000000      SURF                                    
     28     (1,3,8)               0.0000000      SURF                                    
     29     (1,3,9)               0.0000000      SURF                                    
     30     (1,3,10)              0.0000000      SURF                                    
     31     (1,4,1)               0.0000000      SURF                                    
     32     (1,4,2)               0.0000000      SURF                                    
     33     (1,4,3)               0.0000000      SURF                                    
     34     (1,4,4)               0.0000000      SURF                                    
     35     (1,4,5)               0.0000000      SURF                                    
     36     (1,4,6)               0.0000000      SURF                                    
     37     (1,4,7)               0.0000000      SURF                                    
     38     (1,4,8)               0.0000000      SURF                                    
     39     (1,4,9)               0.0000000      SURF                                    
     40     (1,4,10)              0.0000000      SURF                                    
     41     (1,5,1)               0.0000000      SURF                                    
     42     (1,5,2)               0.0000000      SURF                                    
     43     (1,5,3)               0.0000000      SURF                                    
     44     (1,5,4)               0.0000000      SURF                                    
     45     (1,5,5)               0.0000000      SURF                                    
     46     (1,5,6)               0.0000000      SURF                                    
     47     (1,5,7)               0.0000000      SURF                                    
     48     (1,5,8)               0.0000000      SURF                                    
     49     (1,5,9)               0.0000000      SURF                                    
     50     (1,5,10)              0.0000000      SURF                                    
     51     (1,6,1)               0.0000000      SURF                                    
     52     (1,6,2)               0.0000000      SURF                                    
     53     (1,6,3)               0.0000000      SURF                                    
     54     (1,6,4)               0.0000000      SURF                                    
     55     (1,6,5)               0.0000000      SURF                                    
     56     (1,6,6)               0.0000000      SURF                                    
     57     (1,6,7)              -3.28422175E-07 SURF                                    
     58     (1,6,8)               0.0000000      SURF                                    
     59     (1,6,9)               0.0000000      SURF                                    
     60     (1,6,10)              0.0000000      SURF                                    
     61     (1,7,1)               0.0000000      SURF                                    
     62     (1,7,2)               0.0000000      SURF                                    
     63     (1,7,3)               0.0000000      SURF                                    
     64     (1,7,4)               0.0000000      SURF                                    
     65     (1,7,5)               0.0000000      SURF                                    
     66     (1,7,6)               0.0000000      SURF                                    
     67     (1,7,7)               0.0000000      SURF                                    
     68     (1,7,8)               0.0000000      SURF                                    
     69     (1,7,9)               0.0000000      SURF                                    
     70     (1,7,10)              0.0000000      SURF                                    
     71     (1,8,1)               0.0000000      SURF                                    
     72     (1,8,2)               0.0000000      SURF                                    
     73     (1,8,3)               0.0000000      SURF                                    
     74     (1,8,4)               0.0000000      SURF                                    
     75     (1,8,5)               0.0000000      SURF                                    
     76     (1,8,6)               0.0000000      SURF                                    
     77     (1,8,7)               0.0000000      SURF                                    
     78     (1,8,8)               0.0000000      SURF                                    
     79     (1,8,9)               0.0000000      SURF                                    
     80     (1,8,10)              0.0000000      SURF                                    
     81     (1,9,1)               0.0000000      SURF                                    
     82     (1,9,2)               0.0000000      SURF                                    
     83     (1,9,3)               0.0000000      SURF                                    
     84     (1,9,4)               0.0000000      SURF                                    
     85     (1,9,5)               0.0000000      SURF                                    
     86     (1,9,6)               0.0000000      SURF                                    
     87     (1,9,7)               0.0000000      SURF                                    
     88     (1,9,8)               0.0000000      SURF                                    
     89     (1,9,9)               0.0000000      SURF                                    
     90     (1,9,10)              0.0000000      SURF                                    
     91     (1,10,1)              0.0000000      SURF                                    
     92     (1,10,2)              0.0000000      SURF                                    
     93     (1,10,3)              0.0000000      SURF                                    
     94     (1,10,4)              0.0000000      SURF                                    
     95     (1,10,5)              0.0000000      SURF                                    
     96     (1,10,6)              0.0000000      SURF                                    
     97     (1,10,7)              0.0000000      SURF                                    
     98     (1,10,8)              0.0000000      SURF                                    
     99     (1,10,9)              0.0000000      SURF                                    
    100     (1,10,10)             0.0000000      SURF                                    
    101     (1,11,1)              0.0000000      SURF                                    
    102     (1,11,2)              0.0000000      SURF                                    
    103     (1,11,3)              0.0000000      SURF                                    
    104     (1,11,4)              0.0000000      SURF                                    
    105     (1,11,5)              0.0000000      SURF                                    
    106     (1,11,6)              0.0000000      SURF                                    
    107     (1,11,7)              0.0000000      SURF                                    
    108     (1,11,8)              0.0000000      SURF                                    
    109     (1,11,9)              0.0000000      SURF                                    
    110     (1,11,10)             0.0000000      SURF                                    
    111     (1,12,1)              0.0000000      SURF                                    
    112     (1,12,2)              0.0000000      SURF                                    
    113     (1,12,3)              0.0000000      SURF                                    
    114     (1,12,4)              0.0000000      SURF                                    
    115     (1,12,5)              0.0000000      SURF                                    
    116     (1,12,6)              0.0000000      SURF                                    
    117     (1,12,7)              0.0000000      SURF                                    
    118     (1,12,8)              0.0000000      SURF                                    
    119     (1,12,9)              0.0000000      SURF                                    
    120     (1,12,10)             0.0000000      SURF                                    
    121     (1,13,1)              0.0000000      SURF                                    
    122     (1,13,2)              0.0000000      SURF                                    
    123     (1,13,3)              0.0000000      SURF                                    
    124     (1,13,4)              0.0000000      SURF                                    
    125     (1,13,5)              0.0000000      SURF                                    
    126     (1,13,6)              0.0000000      SURF                                    
    127     (1,13,7)              0.0000000      SURF                                    
    128     (1,13,8)              0.0000000      SURF                                    
    129     (1,13,9)              0.0000000      SURF                                    
    130     (1,13,10)             0.0000000      SURF                                    
    131     (1,14,1)              0.0000000      SURF                                    
    132     (1,14,2)              0.0000000      SURF                                    
    133     (1,14,3)              0.0000000      SURF                                    
    134     (1,14,4)              0.0000000      SURF                                    
    135     (1,14,5)              0.0000000      SURF                                    
    136     (1,14,6)              0.0000000      SURF                                    
    137     (1,14,7)              0.0000000      SURF                                    
    138     (1,14,8)              0.0000000      SURF                                    
    139     (1,14,9)              0.0000000      SURF                                    
    140     (1,14,10)             0.0000000      SURF                                    
    141     (1,15,1)              0.0000000      SURF                                    
    142     (1,15,2)              0.0000000      SURF                                    
    143     (1,15,3)              0.0000000      SURF                                    
    144     (1,15,4)              0.0000000      SURF                                    
    145     (1,15,5)              0.0000000      SURF                                    
    146     (1,15,6)              0.0000000      SURF                                    
    147     (1,15,7)              0.0000000      SURF                                    
    148     (1,15,8)              0.0000000      SURF                                    
    149     (1,15,9)              0.0000000      SURF                                    
    150     (1,15,10)             0.0000000      SURF                                    
 ----------------------------------------------------------------------------------------




 API PACKAGE (MAR) FLOW RATES   PERIOD      2   STEP       65
 -----------------------------------------------
   NUMBER   CELLID                    RATE      
 -----------------------------------------------
     1      (1,6,5)               35.562807     
     2      (1,6,6)               35.562807     
     3      (1,6,7)               35.562807     
     4      (1,10,5)              33.618424     
     5      (1,10,6)              33.618424     
     6      (1,10,7)              33.618424     
 -----------------------------------------------



1
  HEAD IN LAYER   1 AT END OF TIME STEP  65 IN STRESS PERIOD    2
  ---------------------------------------------------------------------------

            1           2           3           4           5           6           7           8           9          10
 ........................................................................................................................
   1   8.1834E-03  1.2489E-02  2.0906E-02  3.1996E-02  4.2016E-02  4.6057E-02  4.2314E-02  3.2874E-02  2.3051E-02  1.7156E-02
   2   1.2609E-02  1.9865E-02  3.4576E-02  5.5003E-02  7.4441E-02  8.2118E-02  7.4880E-02  5.6313E-02  3.7843E-02  2.7176E-02
   3   2.0636E-02  3.3925E-02  6.2412E-02  0.1054      0.1503      0.1668      0.1509      0.1075      6.7668E-02  4.6106E-02
   4   2.8690E-02  4.9748E-02  9.9045E-02  0.1847      0.2904      0.3225      0.2913      0.1874      0.1062      6.6958E-02
   5   2.8401E-02  5.2702E-02  0.1195      0.2703      0.5337      0.5740      0.5346      0.2729      0.1264      6.9882E-02
   6   9.4572E-03  1.8028E-02  5.9949E-02  0.2477      0.9996      0.9191       1.000      0.2488      6.2347E-02  2.3029E-02
   7  -2.6100E-02 -6.4212E-02 -0.1705     -0.4139     -0.9353      -2.147     -0.9355     -0.4151     -0.1759     -8.3256E-02
   8  -4.6376E-02 -0.1139     -0.3234     -0.9127      -2.675      -9.243      -2.676     -0.9154     -0.3334     -0.1469    
   9  -2.8278E-02 -6.6775E-02 -0.1738     -0.4193     -0.9479      -2.162     -0.9482     -0.4208     -0.1798     -8.6849E-02
  10   5.7476E-03  1.3568E-02  5.3732E-02  0.2344      0.9525      0.8669      0.9527      0.2351      5.5104E-02  1.6816E-02
  11   2.4133E-02  4.7527E-02  0.1128      0.2609      0.5177      0.5565      0.5183      0.2630      0.1186      6.2664E-02
  12   2.4775E-02  4.4889E-02  9.2696E-02  0.1767      0.2807      0.3122      0.2814      0.1789      9.8762E-02  6.0186E-02
  13   1.7610E-02  3.0074E-02  5.7210E-02  9.8824E-02  0.1426      0.1587      0.1431      0.1005      6.1632E-02  4.0746E-02
  14   1.0499E-02  1.7125E-02  3.0767E-02  5.0024E-02  6.8560E-02  7.5878E-02  6.8896E-02  5.1060E-02  3.3454E-02  2.3368E-02
  15   6.6235E-03  1.0438E-02  1.8004E-02  2.8134E-02  3.7396E-02  4.1132E-02  3.7619E-02  2.8812E-02  1.9722E-02  1.4309E-02

 HEAD WILL BE SAVED ON UNIT 1100 AT END OF TIME STEP   65, STRESS PERIOD    2


  VOLUME BUDGET FOR ENTIRE MODEL AT END OF TIME STEP   65, STRESS PERIOD   2
  ---------------------------------------------------------------------------------------------------

     CUMULATIVE VOLUME      L**3       RATES FOR THIS TIME STEP      L**3/T          PACKAGE NAME    
     ------------------                 ------------------------                     ----------------

           IN:                                      IN:
           ---                                      ---
              STO-SS =          23.3566                STO-SS =       1.0255E-02     STORAGE                          
              STO-SY =       58167.2799                STO-SY =          21.5144     STORAGE                          
                 WEL =           0.0000                   WEL =           0.0000     WEL-1                            
                 DRN =           0.0000                   DRN =           0.0000     DRN-0                            
                 API =      132677.6405                   API =         207.5437     MAR                              
                 CHD =       2.0279E-08                   CHD =           0.0000     CHD_0                            

            TOTAL IN =      190868.2770              TOTAL IN =         229.0683

          OUT:                                     OUT:
          ----                                     ----
              STO-SS =          19.7789                STO-SS =       1.0885E-02     STORAGE                          
              STO-SY =       38602.0511                STO-SY =          21.5138     STORAGE                          
                 WEL =      152246.4468                   WEL =         207.5437     WEL-1                            
                 DRN =       2.1848E-04                   DRN =       3.2842E-07     DRN-0                            
                 API =           0.0000                   API =           0.0000     MAR                              
                 CHD =       2.0705E-08                   CHD =           0.0000     CHD_0                            

           TOTAL OUT =      190868.2770             TOTAL OUT =         229.0683

            IN - OUT =      -1.1358E-06              IN - OUT =       8.4592E-10

 PERCENT DISCREPANCY =          -0.00     PERCENT DISCREPANCY =           0.00




         TIME SUMMARY AT END OF TIME STEP   65 IN STRESS PERIOD    2
                    SECONDS     MINUTES      HOURS       DAYS        YEARS
                    -----------------------------------------------------------
   TIME STEP LENGTH 8.64000E+05  14400.      240.00      10.000     2.73785E-02
 STRESS PERIOD TIME 5.61600E+07 9.36000E+05  15600.      650.00      1.7796    
         TOTAL TIME 5.62464E+07 9.37440E+05  15624.      651.00      1.7823    


end timestep


start timestep kper="2" kstp="66" mode="normal"

 UBDSV1 SAVING           STO-SS ON UNIT   1099 AT TIME STEP     66, STRESS PERIOD      2
 UBDSV1 SAVING           STO-SY ON UNIT   1099 AT TIME STEP     66, STRESS PERIOD      2
 UBDSV1 SAVING     FLOW-JA-FACE ON UNIT   1099 AT TIME STEP     66, STRESS PERIOD      2
 UBDSV06 SAVING       DATA-SPDIS IN MODEL GWF              PACKAGE NPF             CONNECTED TO MODEL GWF              PACKAGE NPF              ON UNIT   1099 AT TIME STEP     66, STRESS PERIOD      2
 UBDSV06 SAVING              WEL IN MODEL GWF              PACKAGE GWF             CONNECTED TO MODEL GWF              PACKAGE WEL-1            ON UNIT   1099 AT TIME STEP     66, STRESS PERIOD      2
 UBDSV06 SAVING              DRN IN MODEL GWF              PACKAGE GWF             CONNECTED TO MODEL GWF              PACKAGE DRN-0            ON UNIT   1099 AT TIME STEP     66, STRESS PERIOD      2
 UBDSV06 SAVING              API IN MODEL GWF              PACKAGE GWF             CONNECTED TO MODEL GWF              PACKAGE MAR              ON UNIT   1099 AT TIME STEP     66, STRESS PERIOD      2
 UBDSV06 SAVING              CHD IN MODEL GWF              PACKAGE GWF             CONNECTED TO MODEL GWF              PACKAGE CHD_0            ON UNIT   1099 AT TIME STEP     66, STRESS PERIOD      2

    CALCULATED INTERCELL FLOW FOR PERIOD 2 STEP 66
(1,1,1): (1,1,2) 4.449557E-02 (1,2,1) 4.535347E-02
(1,1,2): (1,1,1) -4.449557E-02 (1,1,3) 8.679509E-02 (1,2,2) 7.521196E-02
(1,1,3): (1,1,2) -8.679509E-02 (1,1,4) 0.114086 (1,2,3) 0.138939
(1,1,4): (1,1,3) -0.114086 (1,1,5) 0.102922 (1,2,4) 0.233664
(1,1,5): (1,1,4) -0.102922 (1,1,6) 4.154399E-02 (1,2,5) 0.329485
(1,1,6): (1,1,5) -4.154399E-02 (1,1,7) -3.832271E-02 (1,2,6) 0.366601
(1,1,7): (1,1,6) 3.832271E-02 (1,1,8) -9.673785E-02 (1,2,7) 0.330976
(1,1,8): (1,1,7) 9.673785E-02 (1,1,9) -0.100744 (1,2,8) 0.238185
(1,1,9): (1,1,8) 0.100744 (1,1,10) -6.049260E-02 (1,2,9) 0.150539
(1,1,10): (1,1,9) 6.049260E-02 (1,2,10) 0.102269
(1,2,1): (1,1,1) -4.535347E-02 (1,2,2) 7.435380E-02 (1,3,1) 8.161237E-02
(1,2,2): (1,1,2) -7.521196E-02 (1,2,1) -7.435380E-02 (1,2,3) 0.150529 (1,3,2) 0.142447
(1,2,3): (1,1,3) -0.138939 (1,2,2) -0.150529 (1,2,4) 0.208788 (1,3,3) 0.281859
(1,2,4): (1,1,4) -0.233664 (1,2,3) -0.208788 (1,2,5) 0.198620 (1,3,4) 0.512050
(1,2,5): (1,1,5) -0.329485 (1,2,4) -0.198620 (1,2,6) 7.855517E-02 (1,3,5) 0.772674
(1,2,6): (1,1,6) -0.366601 (1,2,5) -7.855517E-02 (1,2,7) -7.384563E-02 (1,3,6) 0.864767
(1,2,7): (1,1,7) -0.330976 (1,2,6) 7.384563E-02 (1,2,8) -0.189400 (1,3,7) 0.775236
(1,2,8): (1,1,8) -0.238185 (1,2,7) 0.189400 (1,2,9) -0.188348 (1,3,8) 0.519875
(1,2,9): (1,1,9) -0.150539 (1,2,8) 0.188348 (1,2,10) -0.108742 (1,3,9) 0.302355
(1,2,10): (1,1,10) -0.102269 (1,2,9) 0.108742 (1,3,10) 0.192059
(1,3,1): (1,2,1) -8.161237E-02 (1,3,2) 0.135184 (1,4,1) 8.038149E-02
(1,3,2): (1,2,2) -0.142447 (1,3,1) -0.135184 (1,3,3) 0.289953 (1,4,2) 0.158189
(1,3,3): (1,2,3) -0.281859 (1,3,2) -0.289953 (1,3,4) 0.438816 (1,4,3) 0.368552
(1,3,4): (1,2,4) -0.512050 (1,3,3) -0.438816 (1,3,5) 0.458456 (1,4,4) 0.805654
(1,3,5): (1,2,5) -0.772674 (1,3,4) -0.458456 (1,3,6) 0.170038 (1,4,5) 1.44093
(1,3,6): (1,2,6) -0.864767 (1,3,5) -0.170038 (1,3,7) -0.162777 (1,4,6) 1.60579
(1,3,7): (1,2,7) -0.775236 (1,3,6) 0.162777 (1,3,8) -0.443947 (1,4,7) 1.44326
(1,3,8): (1,2,8) -0.519875 (1,3,7) 0.443947 (1,3,9) -0.405626 (1,4,8) 0.812749
(1,3,9): (1,2,9) -0.302355 (1,3,8) 0.405626 (1,3,10) -0.218948 (1,4,9) 0.387812
(1,3,10): (1,2,10) -0.192059 (1,3,9) 0.218948 (1,4,10) 0.208729
(1,4,1): (1,3,1) -8.038149E-02 (1,4,2) 0.213034 (1,5,1) -6.524924E-03
(1,4,2): (1,3,2) -0.158189 (1,4,1) -0.213034 (1,4,3) 0.500587 (1,5,2) 2.447821E-02
(1,4,3): (1,3,3) -0.368552 (1,4,2) -0.500587 (1,4,4) 0.876213 (1,5,3) 0.199828
(1,4,4): (1,3,4) -0.805654 (1,4,3) -0.876213 (1,4,5) 1.09166 (1,5,4) 0.870694
(1,4,5): (1,3,5) -1.44093 (1,4,4) -1.09166 (1,4,6) 0.332979 (1,5,5) 2.55553
(1,4,6): (1,3,6) -1.60579 (1,4,5) -0.332979 (1,4,7) -0.323403 (1,5,6) 2.65324
(1,4,7): (1,3,7) -1.44326 (1,4,6) 0.323403 (1,4,8) -1.07228 (1,5,7) 2.55526
(1,4,8): (1,3,8) -0.812749 (1,4,7) 1.07228 (1,4,9) -0.830635 (1,5,8) 0.869420
(1,4,9): (1,3,9) -0.387812 (1,4,8) 0.830635 (1,4,10) -0.398050 (1,5,9) 0.196568
(1,4,10): (1,3,10) -0.208729 (1,4,9) 0.398050 (1,5,10) 2.211090E-02
(1,5,1): (1,4,1) 6.524924E-03 (1,5,2) 0.244104 (1,6,1) -0.196851
(1,5,2): (1,4,2) -2.447821E-02 (1,5,1) -0.244104 (1,5,3) 0.676752 (1,6,2) -0.358148
(1,5,3): (1,4,3) -0.199828 (1,5,2) -0.676752 (1,5,4) 1.55139 (1,6,3) -0.616582
(1,5,4): (1,4,4) -0.870694 (1,5,3) -1.55139 (1,5,5) 2.77986 (1,6,4) -0.248319
(1,5,5): (1,4,5) -2.55553 (1,5,4) -2.77986 (1,5,6) 0.428936 (1,6,5) 5.11297
(1,5,6): (1,4,6) -2.65324 (1,5,5) -0.428936 (1,5,7) -0.419616 (1,6,6) 3.75923
(1,5,7): (1,4,7) -2.55526 (1,5,6) 0.419616 (1,5,8) -2.76120 (1,6,7) 5.10807
(1,5,8): (1,4,8) -0.869420 (1,5,7) 2.76120 (1,5,9) -1.50754 (1,6,8) -0.264560
(1,5,9): (1,4,9) -0.196568 (1,5,8) 1.50754 (1,5,10) -0.573147 (1,6,9) -0.664494
(1,5,10): (1,4,10) -2.211090E-02 (1,5,9) 0.573147 (1,6,10) -0.485202
(1,6,1): (1,5,1) 0.196851 (1,6,2) 8.298847E-02 (1,7,1) -0.363131
(1,6,2): (1,5,2) 0.358148 (1,6,1) -8.298847E-02 (1,6,3) 0.418168 (1,7,2) -0.833944
(1,6,3): (1,5,3) 0.616582 (1,6,2) -0.418168 (1,6,4) 1.92431 (1,7,3) -2.33307
(1,6,4): (1,5,4) 0.248319 (1,6,3) -1.92431 (1,6,5) 8.28143 (1,7,4) -6.79890
(1,6,5): (1,5,5) -5.11297 (1,6,4) -8.28143 (1,6,6) -0.880052 (1,7,5) -21.3076
(1,6,6): (1,5,6) -3.75923 (1,6,5) 0.880052 (1,6,7) 0.884694 (1,7,6) -33.4985
(1,6,7): (1,5,7) -5.10807 (1,6,6) -0.884694 (1,6,8) -8.27425 (1,7,7) -21.3153
(1,6,8): (1,5,8) 0.264560 (1,6,7) 8.27425 (1,6,9) -1.91229 (1,7,8) -6.82468
(1,6,9): (1,5,9) 0.664494 (1,6,8) 1.91229 (1,6,10) -0.394013 (1,7,9) -2.41427
(1,6,10): (1,5,10) 0.485202 (1,6,9) 0.394013 (1,7,10) -1.07927
(1,7,1): (1,6,1) 0.363131 (1,7,2) -0.385799 (1,8,1) -0.205318
(1,7,2): (1,6,2) 0.833944 (1,7,1) 0.385799 (1,7,3) -1.06413 (1,8,2) -0.498306
(1,7,3): (1,6,3) 2.33307 (1,7,2) 1.06413 (1,7,4) -2.39562 (1,8,3) -1.50908
(1,7,4): (1,6,4) 6.79890 (1,7,3) 2.39562 (1,7,5) -4.99013 (1,8,4) -4.78952
(1,7,5): (1,6,5) 21.3076 (1,7,4) 4.99013 (1,7,6) -10.9713 (1,8,5) -15.7780
(1,7,6): (1,6,6) 33.4985 (1,7,5) 10.9713 (1,7,7) 10.9691 (1,8,6) -55.7129
(1,7,7): (1,6,7) 21.3153 (1,7,6) -10.9691 (1,7,8) 4.97857 (1,8,7) -15.7819
(1,7,8): (1,6,8) 6.82468 (1,7,7) -4.97857 (1,7,9) 2.35122 (1,8,8) -4.80334
(1,7,9): (1,6,9) 2.41427 (1,7,8) -2.35122 (1,7,10) 0.923098 (1,8,9) -1.55355
(1,7,10): (1,6,10) 1.07927 (1,7,9) -0.923098 (1,8,10) -0.637314
(1,8,1): (1,7,1) 0.205318 (1,8,2) -0.679323 (1,9,1) 0.183680
(1,8,2): (1,7,2) 0.498306 (1,8,1) 0.679323 (1,8,3) -2.08079 (1,9,2) 0.472822
(1,8,3): (1,7,3) 1.50908 (1,8,2) 2.08079 (1,8,4) -5.70730 (1,9,3) 1.47555
(1,8,4): (1,7,4) 4.78952 (1,8,3) 5.70730 (1,8,5) -16.0046 (1,9,4) 4.73096
(1,8,5): (1,7,5) 15.7780 (1,8,4) 16.0046 (1,8,6) -48.0661 (1,9,5) 15.6269
(1,8,6): (1,7,6) 55.7129 (1,8,5) 48.0661 (1,8,7) 48.0567 (1,9,6) 55.4665
(1,8,7): (1,7,7) 15.7819 (1,8,6) -48.0567 (1,8,8) 15.9798 (1,9,7) 15.6294
(1,8,8): (1,7,8) 4.80334 (1,8,7) -15.9798 (1,8,9) 5.62888 (1,9,8) 4.74161
(1,8,9): (1,7,9) 1.55355 (1,8,8) -5.62888 (1,8,10) 1.84204 (1,9,9) 1.51389
(1,8,10): (1,7,10) 0.637314 (1,8,9) -1.84204 (1,9,10) 0.601722
(1,9,1): (1,8,1) -0.183680 (1,9,2) -0.389578 (1,10,1) 0.347652
(1,9,2): (1,8,2) -0.472822 (1,9,1) 0.389578 (1,9,3) -1.07188 (1,10,2) 0.814486
(1,9,3): (1,8,3) -1.47555 (1,9,2) 1.07188 (1,9,4) -2.41888 (1,10,3) 2.30109
(1,9,4): (1,8,4) -4.73096 (1,9,3) 2.41888 (1,9,5) -5.06554 (1,10,4) 6.70268
(1,9,5): (1,8,5) -15.6269 (1,9,4) 5.06554 (1,9,6) -10.9769 (1,10,5) 20.8050
(1,9,6): (1,8,6) -55.4665 (1,9,5) 10.9769 (1,9,7) 10.9734 (1,10,6) 32.8893
(1,9,7): (1,8,7) -15.6294 (1,9,6) -10.9734 (1,9,8) 5.05202 (1,10,7) 20.8117
(1,9,8): (1,8,8) -4.74161 (1,9,7) -5.05202 (1,9,9) 2.37138 (1,10,8) 6.72620
(1,9,9): (1,8,9) -1.51389 (1,9,8) -2.37138 (1,9,10) 0.926808 (1,10,9) 2.37789
(1,9,10): (1,8,10) -0.601722 (1,9,9) -0.926808 (1,10,10) 1.05232
(1,10,1): (1,9,1) -0.347652 (1,10,2) 7.534215E-02 (1,11,1) 0.191065
(1,10,2): (1,9,2) -0.814486 (1,10,1) -7.534215E-02 (1,10,3) 0.398447 (1,11,2) 0.350929
(1,10,3): (1,9,3) -2.30109 (1,10,2) -0.398447 (1,10,4) 1.84087 (1,11,3) 0.612731
(1,10,4): (1,9,4) -6.70268 (1,10,3) -1.84087 (1,10,5) 7.84226 (1,11,4) 0.294401
(1,10,5): (1,9,5) -20.8050 (1,10,4) -7.84226 (1,10,6) -0.938331 (1,11,5) -4.72110
(1,10,6): (1,9,6) -32.8893 (1,10,5) 0.938331 (1,10,7) 0.940878 (1,11,6) -3.33150
(1,10,7): (1,9,7) -20.8117 (1,10,6) -0.940878 (1,10,8) -7.83839 (1,11,7) -4.71652
(1,10,8): (1,9,8) -6.72620 (1,10,7) 7.83839 (1,10,9) -1.83411 (1,11,8) 0.309833
(1,10,9): (1,9,9) -2.37789 (1,10,8) 1.83411 (1,10,10) -0.381408 (1,11,9) 0.658973
(1,10,10): (1,9,10) -1.05232 (1,10,9) 0.381408 (1,11,10) 0.474882
(1,11,1): (1,10,1) -0.191065 (1,11,2) 0.235023 (1,12,1) 9.868190E-03
(1,11,2): (1,10,2) -0.350929 (1,11,1) -0.235023 (1,11,3) 0.660370 (1,12,2) -2.139587E-02
(1,11,3): (1,10,3) -0.612731 (1,11,2) -0.660370 (1,11,4) 1.51873 (1,12,3) -0.195554
(1,11,4): (1,10,4) -0.294401 (1,11,3) -1.51873 (1,11,5) 2.69648 (1,12,4) -0.851665
(1,11,5): (1,10,5) 4.72110 (1,11,4) -2.69648 (1,11,6) 0.409758 (1,12,5) -2.47395
(1,11,6): (1,10,6) 3.33150 (1,11,5) -0.409758 (1,11,7) -0.402808 (1,12,6) -2.55889
(1,11,7): (1,10,7) 4.71652 (1,11,6) 0.402808 (1,11,8) -2.68151 (1,12,7) -2.47342
(1,11,8): (1,10,8) -0.309833 (1,11,7) 2.68151 (1,11,9) -1.48099 (1,12,8) -0.849838
(1,11,9): (1,10,9) -0.658973 (1,11,8) 1.48099 (1,11,10) -0.565333 (1,12,9) -0.191341
(1,11,10): (1,10,10) -0.474882 (1,11,9) 0.565333 (1,12,10) -1.781967E-02
(1,12,1): (1,11,1) -9.868190E-03 (1,12,2) 0.203694 (1,13,1) -7.163461E-02
(1,12,2): (1,11,2) 2.139587E-02 (1,12,1) -0.203694 (1,12,3) 0.485421 (1,13,2) -0.148253
(1,12,3): (1,11,3) 0.195554 (1,12,2) -0.485421 (1,12,4) 0.858484 (1,13,3) -0.356925
(1,12,4): (1,11,4) 0.851665 (1,12,3) -0.858484 (1,12,5) 1.07097 (1,13,4) -0.790717
(1,12,5): (1,11,5) 2.47395 (1,12,4) -1.07097 (1,12,6) 0.326288 (1,13,5) -1.41677
(1,12,6): (1,11,6) 2.55889 (1,12,5) -0.326288 (1,12,7) -0.318826 (1,13,6) -1.57931
(1,12,7): (1,11,7) 2.47342 (1,12,6) 0.318826 (1,12,8) -1.05491 (1,13,7) -1.41857
(1,12,8): (1,11,8) 0.849838 (1,12,7) 1.05491 (1,12,9) -0.818562 (1,13,8) -0.796527
(1,12,9): (1,11,9) 0.191341 (1,12,8) 0.818562 (1,12,10) -0.391178 (1,13,9) -0.373701
(1,12,10): (1,11,10) 1.781967E-02 (1,12,9) 0.391178 (1,13,10) -0.194784
(1,13,1): (1,12,1) 7.163461E-02 (1,13,2) 0.127033 (1,14,1) -7.251620E-02
(1,13,2): (1,12,2) 0.148253 (1,13,1) -0.127033 (1,13,3) 0.276487 (1,14,2) -0.131458
(1,13,3): (1,12,3) 0.356925 (1,13,2) -0.276487 (1,13,4) 0.424411 (1,14,3) -0.268057
(1,13,4): (1,12,4) 0.790717 (1,13,3) -0.424411 (1,13,5) 0.446941 (1,14,4) -0.495548
(1,13,5): (1,12,5) 1.41677 (1,13,4) -0.446941 (1,13,6) 0.165608 (1,14,5) -0.753730
(1,13,6): (1,12,6) 1.57931 (1,13,5) -0.165608 (1,13,7) -0.159939 (1,14,6) -0.845020
(1,13,7): (1,12,7) 1.41857 (1,13,6) 0.159939 (1,13,8) -0.434980 (1,14,7) -0.755789
(1,13,8): (1,12,8) 0.796527 (1,13,7) 0.434980 (1,13,9) -0.395647 (1,14,8) -0.502095
(1,13,9): (1,12,9) 0.373701 (1,13,8) 0.395647 (1,13,10) -0.212230 (1,14,9) -0.285989
(1,13,10): (1,12,10) 0.194784 (1,13,9) 0.212230 (1,14,10) -0.176684
(1,14,1): (1,13,1) 7.251620E-02 (1,14,2) 6.809359E-02 (1,15,1) -3.986115E-02
(1,14,2): (1,13,2) 0.131458 (1,14,1) -6.809359E-02 (1,14,3) 0.139877 (1,15,2) -6.838122E-02
(1,14,3): (1,13,3) 0.268057 (1,14,2) -0.139877 (1,14,4) 0.197077 (1,15,3) -0.129990
(1,14,4): (1,13,4) 0.495548 (1,14,3) -0.197077 (1,14,5) 0.189522 (1,15,4) -0.222623
(1,14,5): (1,13,5) 0.753730 (1,14,4) -0.189522 (1,14,6) 7.491126E-02 (1,15,5) -0.316947
(1,14,6): (1,13,6) 0.845020 (1,14,5) -7.491126E-02 (1,14,7) -7.129134E-02 (1,15,6) -0.353490
(1,14,7): (1,13,7) 0.755789 (1,14,6) 7.129134E-02 (1,14,8) -0.182071 (1,15,7) -0.318146
(1,14,8): (1,13,8) 0.502095 (1,14,7) 0.182071 (1,14,9) -0.179766 (1,15,8) -0.226391
(1,14,9): (1,13,9) 0.285989 (1,14,8) 0.179766 (1,14,10) -0.103004 (1,15,9) -0.140050
(1,14,10): (1,13,10) 0.176684 (1,14,9) 0.103004 (1,15,10) -9.273221E-02
(1,15,1): (1,14,1) 3.986115E-02 (1,15,2) 3.957360E-02
(1,15,2): (1,14,2) 6.838122E-02 (1,15,1) -3.957360E-02 (1,15,3) 7.826193E-02
(1,15,3): (1,14,3) 0.129990 (1,15,2) -7.826193E-02 (1,15,4) 0.104467
(1,15,4): (1,14,4) 0.222623 (1,15,3) -0.104467 (1,15,5) 9.531560E-02
(1,15,5): (1,14,5) 0.316947 (1,15,4) -9.531560E-02 (1,15,6) 3.846799E-02
(1,15,6): (1,14,6) 0.353490 (1,15,5) -3.846799E-02 (1,15,7) -3.604442E-02
(1,15,7): (1,14,7) 0.318146 (1,15,6) 3.604442E-02 (1,15,8) -9.043784E-02
(1,15,8): (1,14,8) 0.226391 (1,15,7) 9.043784E-02 (1,15,9) -9.346503E-02
(1,15,9): (1,14,9) 0.140050 (1,15,8) 9.346503E-02 (1,15,10) -5.570343E-02
(1,15,10): (1,14,10) 9.273221E-02 (1,15,9) 5.570343E-02

 WEL PACKAGE (WEL-1) FLOW RATES   PERIOD      2   STEP       66
 ----------------------------------------------------------------------------------------
   NUMBER   CELLID                    RATE       NAME                                    
 ----------------------------------------------------------------------------------------
     1      (1,8,6)              -207.39578      WEL                                     
 ----------------------------------------------------------------------------------------




 DRN PACKAGE (DRN-0) FLOW RATES   PERIOD      2   STEP       66
 ----------------------------------------------------------------------------------------
   NUMBER   CELLID                    RATE       NAME                                    
 ----------------------------------------------------------------------------------------
     1      (1,1,1)               0.0000000      SURF                                    
     2      (1,1,2)               0.0000000      SURF                                    
     3      (1,1,3)               0.0000000      SURF                                    
     4      (1,1,4)               0.0000000      SURF                                    
     5      (1,1,5)               0.0000000      SURF                                    
     6      (1,1,6)               0.0000000      SURF                                    
     7      (1,1,7)               0.0000000      SURF                                    
     8      (1,1,8)               0.0000000      SURF                                    
     9      (1,1,9)               0.0000000      SURF                                    
     10     (1,1,10)              0.0000000      SURF                                    
     11     (1,2,1)               0.0000000      SURF                                    
     12     (1,2,2)               0.0000000      SURF                                    
     13     (1,2,3)               0.0000000      SURF                                    
     14     (1,2,4)               0.0000000      SURF                                    
     15     (1,2,5)               0.0000000      SURF                                    
     16     (1,2,6)               0.0000000      SURF                                    
     17     (1,2,7)               0.0000000      SURF                                    
     18     (1,2,8)               0.0000000      SURF                                    
     19     (1,2,9)               0.0000000      SURF                                    
     20     (1,2,10)              0.0000000      SURF                                    
     21     (1,3,1)               0.0000000      SURF                                    
     22     (1,3,2)               0.0000000      SURF                                    
     23     (1,3,3)               0.0000000      SURF                                    
     24     (1,3,4)               0.0000000      SURF                                    
     25     (1,3,5)               0.0000000      SURF                                    
     26     (1,3,6)               0.0000000      SURF                                    
     27     (1,3,7)               0.0000000      SURF                                    
     28     (1,3,8)               0.0000000      SURF                                    
     29     (1,3,9)               0.0000000      SURF                                    
     30     (1,3,10)              0.0000000      SURF                                    
     31     (1,4,1)               0.0000000      SURF                                    
     32     (1,4,2)               0.0000000      SURF                                    
     33     (1,4,3)               0.0000000      SURF                                    
     34     (1,4,4)               0.0000000      SURF                                    
     35     (1,4,5)               0.0000000      SURF                                    
     36     (1,4,6)               0.0000000      SURF                                    
     37     (1,4,7)               0.0000000      SURF                                    
     38     (1,4,8)               0.0000000      SURF                                    
     39     (1,4,9)               0.0000000      SURF                                    
     40     (1,4,10)              0.0000000      SURF                                    
     41     (1,5,1)               0.0000000      SURF                                    
     42     (1,5,2)               0.0000000      SURF                                    
     43     (1,5,3)               0.0000000      SURF                                    
     44     (1,5,4)               0.0000000      SURF                                    
     45     (1,5,5)               0.0000000      SURF                                    
     46     (1,5,6)               0.0000000      SURF                                    
     47     (1,5,7)               0.0000000      SURF                                    
     48     (1,5,8)               0.0000000      SURF                                    
     49     (1,5,9)               0.0000000      SURF                                    
     50     (1,5,10)              0.0000000      SURF                                    
     51     (1,6,1)               0.0000000      SURF                                    
     52     (1,6,2)               0.0000000      SURF                                    
     53     (1,6,3)               0.0000000      SURF                                    
     54     (1,6,4)               0.0000000      SURF                                    
     55     (1,6,5)               0.0000000      SURF                                    
     56     (1,6,6)               0.0000000      SURF                                    
     57     (1,6,7)              -3.27287125E-07 SURF                                    
     58     (1,6,8)               0.0000000      SURF                                    
     59     (1,6,9)               0.0000000      SURF                                    
     60     (1,6,10)              0.0000000      SURF                                    
     61     (1,7,1)               0.0000000      SURF                                    
     62     (1,7,2)               0.0000000      SURF                                    
     63     (1,7,3)               0.0000000      SURF                                    
     64     (1,7,4)               0.0000000      SURF                                    
     65     (1,7,5)               0.0000000      SURF                                    
     66     (1,7,6)               0.0000000      SURF                                    
     67     (1,7,7)               0.0000000      SURF                                    
     68     (1,7,8)               0.0000000      SURF                                    
     69     (1,7,9)               0.0000000      SURF                                    
     70     (1,7,10)              0.0000000      SURF                                    
     71     (1,8,1)               0.0000000      SURF                                    
     72     (1,8,2)               0.0000000      SURF                                    
     73     (1,8,3)               0.0000000      SURF                                    
     74     (1,8,4)               0.0000000      SURF                                    
     75     (1,8,5)               0.0000000      SURF                                    
     76     (1,8,6)               0.0000000      SURF                                    
     77     (1,8,7)               0.0000000      SURF                                    
     78     (1,8,8)               0.0000000      SURF                                    
     79     (1,8,9)               0.0000000      SURF                                    
     80     (1,8,10)              0.0000000      SURF                                    
     81     (1,9,1)               0.0000000      SURF                                    
     82     (1,9,2)               0.0000000      SURF                                    
     83     (1,9,3)               0.0000000      SURF                                    
     84     (1,9,4)               0.0000000      SURF                                    
     85     (1,9,5)               0.0000000      SURF                                    
     86     (1,9,6)               0.0000000      SURF                                    
     87     (1,9,7)               0.0000000      SURF                                    
     88     (1,9,8)               0.0000000      SURF                                    
     89     (1,9,9)               0.0000000      SURF                                    
     90     (1,9,10)              0.0000000      SURF                                    
     91     (1,10,1)              0.0000000      SURF                                    
     92     (1,10,2)              0.0000000      SURF                                    
     93     (1,10,3)              0.0000000      SURF                                    
     94     (1,10,4)              0.0000000      SURF                                    
     95     (1,10,5)              0.0000000      SURF                                    
     96     (1,10,6)              0.0000000      SURF                                    
     97     (1,10,7)              0.0000000      SURF                                    
     98     (1,10,8)              0.0000000      SURF                                    
     99     (1,10,9)              0.0000000      SURF                                    
    100     (1,10,10)             0.0000000      SURF                                    
    101     (1,11,1)              0.0000000      SURF                                    
    102     (1,11,2)              0.0000000      SURF                                    
    103     (1,11,3)              0.0000000      SURF                                    
    104     (1,11,4)              0.0000000      SURF                                    
    105     (1,11,5)              0.0000000      SURF                                    
    106     (1,11,6)              0.0000000      SURF                                    
    107     (1,11,7)              0.0000000      SURF                                    
    108     (1,11,8)              0.0000000      SURF                                    
    109     (1,11,9)              0.0000000      SURF                                    
    110     (1,11,10)             0.0000000      SURF                                    
    111     (1,12,1)              0.0000000      SURF                                    
    112     (1,12,2)              0.0000000      SURF                                    
    113     (1,12,3)              0.0000000      SURF                                    
    114     (1,12,4)              0.0000000      SURF                                    
    115     (1,12,5)              0.0000000      SURF                                    
    116     (1,12,6)              0.0000000      SURF                                    
    117     (1,12,7)              0.0000000      SURF                                    
    118     (1,12,8)              0.0000000      SURF                                    
    119     (1,12,9)              0.0000000      SURF                                    
    120     (1,12,10)             0.0000000      SURF                                    
    121     (1,13,1)              0.0000000      SURF                                    
    122     (1,13,2)              0.0000000      SURF                                    
    123     (1,13,3)              0.0000000      SURF                                    
    124     (1,13,4)              0.0000000      SURF                                    
    125     (1,13,5)              0.0000000      SURF                                    
    126     (1,13,6)              0.0000000      SURF                                    
    127     (1,13,7)              0.0000000      SURF                                    
    128     (1,13,8)              0.0000000      SURF                                    
    129     (1,13,9)              0.0000000      SURF                                    
    130     (1,13,10)             0.0000000      SURF                                    
    131     (1,14,1)              0.0000000      SURF                                    
    132     (1,14,2)              0.0000000      SURF                                    
    133     (1,14,3)              0.0000000      SURF                                    
    134     (1,14,4)              0.0000000      SURF                                    
    135     (1,14,5)              0.0000000      SURF                                    
    136     (1,14,6)              0.0000000      SURF                                    
    137     (1,14,7)              0.0000000      SURF                                    
    138     (1,14,8)              0.0000000      SURF                                    
    139     (1,14,9)              0.0000000      SURF                                    
    140     (1,14,10)             0.0000000      SURF                                    
    141     (1,15,1)              0.0000000      SURF                                    
    142     (1,15,2)              0.0000000      SURF                                    
    143     (1,15,3)              0.0000000      SURF                                    
    144     (1,15,4)              0.0000000      SURF                                    
    145     (1,15,5)              0.0000000      SURF                                    
    146     (1,15,6)              0.0000000      SURF                                    
    147     (1,15,7)              0.0000000      SURF                                    
    148     (1,15,8)              0.0000000      SURF                                    
    149     (1,15,9)              0.0000000      SURF                                    
    150     (1,15,10)             0.0000000      SURF                                    
 ----------------------------------------------------------------------------------------




 API PACKAGE (MAR) FLOW RATES   PERIOD      2   STEP       66
 -----------------------------------------------
   NUMBER   CELLID                    RATE      
 -----------------------------------------------
     1      (1,6,5)               35.582306     
     2      (1,6,6)               35.582306     
     3      (1,6,7)               35.582306     
     4      (1,10,5)              33.549621     
     5      (1,10,6)              33.549621     
     6      (1,10,7)              33.549621     
 -----------------------------------------------



1
  HEAD IN LAYER   1 AT END OF TIME STEP  66 IN STRESS PERIOD    2
  ---------------------------------------------------------------------------

            1           2           3           4           5           6           7           8           9          10
 ........................................................................................................................
   1   8.6325E-03  1.3076E-02  2.1737E-02  3.3108E-02  4.3356E-02  4.7490E-02  4.3676E-02  3.4045E-02  2.4004E-02  1.7969E-02
   2   1.3162E-02  2.0582E-02  3.5582E-02  5.6343E-02  7.6055E-02  8.3846E-02  7.6522E-02  5.7726E-02  3.9000E-02  2.8168E-02
   3   2.1306E-02  3.4777E-02  6.3589E-02  0.1070      0.1522      0.1689      0.1529      0.1092      6.9028E-02  4.7283E-02
   4   2.9320E-02  5.0517E-02  0.1001      0.1861      0.2922      0.3244      0.2931      0.1889      0.1074      6.8015E-02
   5   2.8670E-02  5.2952E-02  0.1198      0.2709      0.5347      0.5753      0.5356      0.2735      0.1268      7.0211E-02
   6   9.0409E-03  1.7325E-02  5.8897E-02  0.2467      0.9996      0.9196       1.000      0.2478      6.1190E-02  2.2029E-02
   7  -2.7239E-02 -6.5925E-02 -0.1730     -0.4168     -0.9375      -2.148     -0.9378     -0.4182     -0.1788     -8.5661E-02
   8  -4.7827E-02 -0.1161     -0.3266     -0.9166      -2.679      -9.244      -2.679     -0.9195     -0.3370     -0.1499    
   9  -2.9405E-02 -6.8478E-02 -0.1764     -0.4226     -0.9515      -2.165     -0.9519     -0.4243     -0.1827     -8.9229E-02
  10   5.3416E-03  1.2866E-02  5.2503E-02  0.2324      0.9487      0.8630      0.9489      0.2330      5.3773E-02  1.5836E-02
  11   2.4402E-02  4.7792E-02  0.1131      0.2611      0.5175      0.5563      0.5181      0.2632      0.1189      6.3027E-02
  12   2.5386E-02  4.5663E-02  9.3754E-02  0.1781      0.2823      0.3139      0.2830      0.1804      0.1000      6.1256E-02
  13   1.8241E-02  3.0905E-02  5.8393E-02  0.1004      0.1445      0.1608      0.1450      0.1022      6.2987E-02  4.1897E-02
  14   1.1002E-02  1.7799E-02  3.1743E-02  5.1350E-02  7.0170E-02  7.7603E-02  7.0529E-02  5.2450E-02  3.4567E-02  2.4302E-02
  15   7.0204E-03  1.0973E-02  1.8785E-02  2.9201E-02  3.8696E-02  4.2527E-02  3.8937E-02  2.9929E-02  2.0610E-02  1.5051E-02

 HEAD WILL BE SAVED ON UNIT 1100 AT END OF TIME STEP   66, STRESS PERIOD    2


  VOLUME BUDGET FOR ENTIRE MODEL AT END OF TIME STEP   66, STRESS PERIOD   2
  ---------------------------------------------------------------------------------------------------

     CUMULATIVE VOLUME      L**3       RATES FOR THIS TIME STEP      L**3/T          PACKAGE NAME    
     ------------------                 ------------------------                     ----------------

           IN:                                      IN:
           ---                                      ---
              STO-SS =          23.4578                STO-SS =       1.0123E-02     STORAGE                          
              STO-SY =       58379.4509                STO-SY =          21.2171     STORAGE                          
                 WEL =           0.0000                   WEL =           0.0000     WEL-1                            
                 DRN =           0.0000                   DRN =           0.0000     DRN-0                            
                 API =      134751.5983                   API =         207.3958     MAR                              
                 CHD =       2.0279E-08                   CHD =           0.0000     CHD_0                            

            TOTAL IN =      193154.5071              TOTAL IN =         228.6230

          OUT:                                     OUT:
          ----                                     ----
              STO-SS =          19.8863                STO-SS =       1.0734E-02     STORAGE                          
              STO-SY =       38814.2160                STO-SY =          21.2165     STORAGE                          
                 WEL =      154320.4046                   WEL =         207.3958     WEL-1                            
                 DRN =       2.2175E-04                   DRN =       3.2729E-07     DRN-0                            
                 API =           0.0000                   API =           0.0000     MAR                              
                 CHD =       2.0705E-08                   CHD =           0.0000     CHD_0                            

           TOTAL OUT =      193154.5071             TOTAL OUT =         228.6230

            IN - OUT =      -1.1275E-06              IN - OUT =       8.3460E-10

 PERCENT DISCREPANCY =          -0.00     PERCENT DISCREPANCY =           0.00




         TIME SUMMARY AT END OF TIME STEP   66 IN STRESS PERIOD    2
                    SECONDS     MINUTES      HOURS       DAYS        YEARS
                    -----------------------------------------------------------
   TIME STEP LENGTH 8.64000E+05  14400.      240.00      10.000     2.73785E-02
 STRESS PERIOD TIME 5.70240E+07 9.50400E+05  15840.      660.00      1.8070    
         TOTAL TIME 5.71104E+07 9.51840E+05  15864.      661.00      1.8097    


end timestep


start timestep kper="2" kstp="67" mode="normal"

 UBDSV1 SAVING           STO-SS ON UNIT   1099 AT TIME STEP     67, STRESS PERIOD      2
 UBDSV1 SAVING           STO-SY ON UNIT   1099 AT TIME STEP     67, STRESS PERIOD      2
 UBDSV1 SAVING     FLOW-JA-FACE ON UNIT   1099 AT TIME STEP     67, STRESS PERIOD      2
 UBDSV06 SAVING       DATA-SPDIS IN MODEL GWF              PACKAGE NPF             CONNECTED TO MODEL GWF              PACKAGE NPF              ON UNIT   1099 AT TIME STEP     67, STRESS PERIOD      2
 UBDSV06 SAVING              WEL IN MODEL GWF              PACKAGE GWF             CONNECTED TO MODEL GWF              PACKAGE WEL-1            ON UNIT   1099 AT TIME STEP     67, STRESS PERIOD      2
 UBDSV06 SAVING              DRN IN MODEL GWF              PACKAGE GWF             CONNECTED TO MODEL GWF              PACKAGE DRN-0            ON UNIT   1099 AT TIME STEP     67, STRESS PERIOD      2
 UBDSV06 SAVING              API IN MODEL GWF              PACKAGE GWF             CONNECTED TO MODEL GWF              PACKAGE MAR              ON UNIT   1099 AT TIME STEP     67, STRESS PERIOD      2
 UBDSV06 SAVING              CHD IN MODEL GWF              PACKAGE GWF             CONNECTED TO MODEL GWF              PACKAGE CHD_0            ON UNIT   1099 AT TIME STEP     67, STRESS PERIOD      2

    CALCULATED INTERCELL FLOW FOR PERIOD 2 STEP 67
(1,1,1): (1,1,2) 4.587819E-02 (1,2,1) 4.636135E-02
(1,1,2): (1,1,1) -4.587819E-02 (1,1,3) 8.923058E-02 (1,2,2) 7.646233E-02
(1,1,3): (1,1,2) -8.923058E-02 (1,1,4) 0.116902 (1,2,3) 0.140623
(1,1,4): (1,1,3) -0.116902 (1,1,5) 0.105207 (1,2,4) 0.235877
(1,1,5): (1,1,4) -0.105207 (1,1,6) 4.248102E-02 (1,2,5) 0.332166
(1,1,6): (1,1,5) -4.248102E-02 (1,1,7) -3.902568E-02 (1,2,6) 0.369487
(1,1,7): (1,1,6) 3.902568E-02 (1,1,8) -9.864877E-02 (1,2,7) 0.333715
(1,1,8): (1,1,7) 9.864877E-02 (1,1,9) -0.102901 (1,2,8) 0.240540
(1,1,9): (1,1,8) 0.102901 (1,1,10) -6.188315E-02 (1,2,9) 0.152502
(1,1,10): (1,1,9) 6.188315E-02 (1,2,10) 0.103998
(1,2,1): (1,1,1) -4.636135E-02 (1,2,2) 7.597902E-02 (1,3,1) 8.271117E-02
(1,2,2): (1,1,2) -7.646233E-02 (1,2,1) -7.597902E-02 (1,2,3) 0.153399 (1,3,2) 0.143715
(1,2,3): (1,1,3) -0.140623 (1,2,2) -0.153399 (1,2,4) 0.212133 (1,3,3) 0.283476
(1,2,4): (1,1,4) -0.235877 (1,2,3) -0.212133 (1,2,5) 0.201374 (1,3,4) 0.514215
(1,2,5): (1,1,5) -0.332166 (1,2,4) -0.201374 (1,2,6) 7.969607E-02 (1,3,5) 0.775472
(1,2,6): (1,1,6) -0.369487 (1,2,5) -7.969607E-02 (1,2,7) -7.469507E-02 (1,3,6) 0.867877
(1,2,7): (1,1,7) -0.333715 (1,2,6) 7.469507E-02 (1,2,8) -0.191693 (1,3,7) 0.778108
(1,2,8): (1,1,8) -0.240540 (1,2,7) 0.191693 (1,2,9) -0.190896 (1,3,8) 0.522211
(1,2,9): (1,1,9) -0.152502 (1,2,8) 0.190896 (1,2,10) -0.110367 (1,3,9) 0.304278
(1,2,10): (1,1,10) -0.103998 (1,2,9) 0.110367 (1,3,10) 0.193797
(1,3,1): (1,2,1) -8.271117E-02 (1,3,2) 0.136979 (1,4,1) 7.989062E-02
(1,3,2): (1,2,2) -0.143715 (1,3,1) -0.136979 (1,3,3) 0.293173 (1,4,2) 0.157251
(1,3,3): (1,2,3) -0.283476 (1,3,2) -0.293173 (1,3,4) 0.442712 (1,4,3) 0.367025
(1,3,4): (1,2,4) -0.514215 (1,3,3) -0.442712 (1,3,5) 0.461843 (1,4,4) 0.803975
(1,3,5): (1,2,5) -0.775472 (1,3,4) -0.461843 (1,3,6) 0.171487 (1,4,5) 1.43981
(1,3,6): (1,2,6) -0.867877 (1,3,5) -0.171487 (1,3,7) -0.163861 (1,4,6) 1.60505
(1,3,7): (1,2,7) -0.778108 (1,3,6) 0.163861 (1,3,8) -0.446776 (1,4,7) 1.44214
(1,3,8): (1,2,8) -0.522211 (1,3,7) 0.446776 (1,3,9) -0.408588 (1,4,8) 0.811055
(1,3,9): (1,2,9) -0.304278 (1,3,8) 0.408588 (1,3,10) -0.220757 (1,4,9) 0.386154
(1,3,10): (1,2,10) -0.193797 (1,3,9) 0.220757 (1,4,10) 0.207371
(1,4,1): (1,3,1) -7.989062E-02 (1,4,2) 0.214384 (1,5,1) -1.022660E-02
(1,4,2): (1,3,2) -0.157251 (1,4,1) -0.214384 (1,4,3) 0.503226 (1,5,2) 1.923447E-02
(1,4,3): (1,3,3) -0.367025 (1,4,2) -0.503226 (1,4,4) 0.879980 (1,5,3) 0.192377
(1,4,4): (1,3,4) -0.803975 (1,4,3) -0.879980 (1,4,5) 1.09564 (1,5,4) 0.862103
(1,4,5): (1,3,5) -1.43981 (1,4,4) -1.09564 (1,4,6) 0.334818 (1,5,5) 2.54804
(1,4,6): (1,3,6) -1.60505 (1,4,5) -0.334818 (1,4,7) -0.324867 (1,5,6) 2.64659
(1,4,7): (1,3,7) -1.44214 (1,4,6) 0.324867 (1,4,8) -1.07571 (1,5,7) 2.54763
(1,4,8): (1,3,8) -0.811055 (1,4,7) 1.07571 (1,4,9) -0.833582 (1,5,8) 0.860425
(1,4,9): (1,3,9) -0.386154 (1,4,8) 0.833582 (1,4,10) -0.399563 (1,5,9) 0.188110
(1,4,10): (1,3,10) -0.207371 (1,4,9) 0.399563 (1,5,10) 1.473851E-02
(1,5,1): (1,4,1) 1.022660E-02 (1,5,2) 0.243909 (1,6,1) -0.203711
(1,5,2): (1,4,2) -1.923447E-02 (1,5,1) -0.243909 (1,5,3) 0.677187 (1,6,2) -0.367602
(1,5,3): (1,4,3) -0.192377 (1,5,2) -0.677187 (1,5,4) 1.55408 (1,6,3) -0.629840
(1,5,4): (1,4,4) -0.862103 (1,5,3) -1.55408 (1,5,5) 2.78512 (1,6,4) -0.263376
(1,5,5): (1,4,5) -2.54804 (1,5,4) -2.78512 (1,5,6) 0.431617 (1,6,5) 5.10198
(1,5,6): (1,4,6) -2.64659 (1,5,5) -0.431617 (1,5,7) -0.422053 (1,6,6) 3.75047
(1,5,7): (1,4,7) -2.54763 (1,5,6) 0.422053 (1,5,8) -2.76619 (1,6,7) 5.09680
(1,5,8): (1,4,8) -0.860425 (1,5,7) 2.76619 (1,5,9) -1.51002 (1,6,8) -0.280399
(1,5,9): (1,4,9) -0.188110 (1,5,8) 1.51002 (1,5,10) -0.573586 (1,6,9) -0.679603
(1,5,10): (1,4,10) -1.473851E-02 (1,5,9) 0.573586 (1,6,10) -0.498420
(1,6,1): (1,5,1) 0.203711 (1,6,2) 8.021820E-02 (1,7,1) -0.370267
(1,6,2): (1,5,2) 0.367602 (1,6,1) -8.021820E-02 (1,6,3) 0.414829 (1,7,2) -0.843775
(1,6,3): (1,5,3) 0.629840 (1,6,2) -0.414829 (1,6,4) 1.92514 (1,7,3) -2.34728
(1,6,4): (1,5,4) 0.263376 (1,6,3) -1.92514 (1,6,5) 8.29177 (1,7,4) -6.81752
(1,6,5): (1,5,5) -5.10198 (1,6,4) -8.29177 (1,6,6) -0.875303 (1,7,5) -21.3313
(1,6,6): (1,5,6) -3.75047 (1,6,5) 0.875303 (1,6,7) 0.879915 (1,7,6) -33.5187
(1,6,7): (1,5,7) -5.09680 (1,6,6) -0.879915 (1,6,8) -8.28485 (1,7,7) -21.3393
(1,6,8): (1,5,8) 0.280399 (1,6,7) 8.28485 (1,6,9) -1.91398 (1,7,8) -6.84412
(1,6,9): (1,5,9) 0.679603 (1,6,8) 1.91398 (1,6,10) -0.392588 (1,7,9) -2.43038
(1,6,10): (1,5,10) 0.498420 (1,6,9) 0.392588 (1,7,10) -1.09293
(1,7,1): (1,6,1) 0.370267 (1,7,2) -0.391228 (1,8,1) -0.208354
(1,7,2): (1,6,2) 0.843775 (1,7,1) 0.391228 (1,7,3) -1.07166 (1,8,2) -0.502475
(1,7,3): (1,6,3) 2.34728 (1,7,2) 1.07166 (1,7,4) -2.39840 (1,8,3) -1.51512
(1,7,4): (1,6,4) 6.81752 (1,7,3) 2.39840 (1,7,5) -4.98231 (1,8,4) -4.79706
(1,7,5): (1,6,5) 21.3313 (1,7,4) 4.98231 (1,7,6) -10.9609 (1,8,5) -15.7834
(1,7,6): (1,6,6) 33.5187 (1,7,5) 10.9609 (1,7,7) 10.9584 (1,8,6) -55.6971
(1,7,7): (1,6,7) 21.3393 (1,7,6) -10.9584 (1,7,8) 4.96994 (1,8,7) -15.7874
(1,7,8): (1,6,8) 6.84412 (1,7,7) -4.96994 (1,7,9) 2.35202 (1,8,8) -4.81122
(1,7,9): (1,6,9) 2.43038 (1,7,8) -2.35202 (1,7,10) 0.926759 (1,8,9) -1.56038
(1,7,10): (1,6,10) 1.09293 (1,7,9) -0.926759 (1,8,10) -0.643063
(1,8,1): (1,7,1) 0.208354 (1,8,2) -0.685893 (1,9,1) 0.186827
(1,8,2): (1,7,2) 0.502475 (1,8,1) 0.685893 (1,8,3) -2.09025 (1,9,2) 0.477046
(1,8,3): (1,7,3) 1.51512 (1,8,2) 2.09025 (1,8,4) -5.71150 (1,9,3) 1.48074
(1,8,4): (1,7,4) 4.79706 (1,8,3) 5.71150 (1,8,5) -15.9926 (1,9,4) 4.73363
(1,8,5): (1,7,5) 15.7834 (1,8,4) 15.9926 (1,8,6) -48.0255 (1,9,5) 15.6167
(1,8,6): (1,7,6) 55.6971 (1,8,5) 48.0255 (1,8,7) 48.0154 (1,9,6) 55.4236
(1,8,7): (1,7,7) 15.7874 (1,8,6) -48.0154 (1,8,8) 15.9666 (1,9,7) 15.6192
(1,8,8): (1,7,8) 4.81122 (1,8,7) -15.9666 (1,8,9) 5.63054 (1,9,8) 4.74460
(1,8,9): (1,7,9) 1.56038 (1,8,8) -5.63054 (1,8,10) 1.84677 (1,9,9) 1.51991
(1,8,10): (1,7,10) 0.643063 (1,8,9) -1.84677 (1,9,10) 0.607660
(1,9,1): (1,8,1) -0.186827 (1,9,2) -0.395063 (1,10,1) 0.354768
(1,9,2): (1,8,2) -0.477046 (1,9,1) 0.395063 (1,9,3) -1.08032 (1,10,2) 0.824194
(1,9,3): (1,8,3) -1.48074 (1,9,2) 1.08032 (1,9,4) -2.42555 (1,10,3) 2.31408
(1,9,4): (1,8,4) -4.73363 (1,9,3) 2.42555 (1,9,5) -5.06673 (1,10,4) 6.71419
(1,9,5): (1,8,5) -15.6167 (1,9,4) 5.06673 (1,9,6) -10.9681 (1,10,5) 20.7960
(1,9,6): (1,8,6) -55.4236 (1,9,5) 10.9681 (1,9,7) 10.9643 (1,10,6) 32.8681
(1,9,7): (1,8,7) -15.6192 (1,9,6) -10.9643 (1,9,8) 5.05241 (1,10,7) 20.8030
(1,9,8): (1,8,8) -4.74460 (1,9,7) -5.05241 (1,9,9) 2.37611 (1,10,8) 6.73850
(1,9,9): (1,8,9) -1.51991 (1,9,8) -2.37611 (1,9,10) 0.931466 (1,10,9) 2.39279
(1,9,10): (1,8,10) -0.607660 (1,9,9) -0.931466 (1,10,10) 1.06590
(1,10,1): (1,9,1) -0.354768 (1,10,2) 7.241459E-02 (1,11,1) 0.197833
(1,10,2): (1,9,2) -0.824194 (1,10,1) -7.241459E-02 (1,10,3) 0.393141 (1,11,2) 0.360545
(1,10,3): (1,9,3) -2.31408 (1,10,2) -0.393141 (1,10,4) 1.83223 (1,11,3) 0.627414
(1,10,4): (1,9,4) -6.71419 (1,10,3) -1.83223 (1,10,5) 7.82067 (1,11,4) 0.316384
(1,10,5): (1,9,5) -20.7960 (1,10,4) -7.82067 (1,10,6) -0.940082 (1,11,5) -4.68130
(1,10,6): (1,9,6) -32.8681 (1,10,5) 0.940082 (1,10,7) 0.942574 (1,11,6) -3.29054
(1,10,7): (1,9,7) -20.8030 (1,10,6) -0.942574 (1,10,8) -7.81705 (1,11,7) -4.67645
(1,10,8): (1,9,8) -6.73850 (1,10,7) 7.81705 (1,10,9) -1.82627 (1,11,8) 0.332570
(1,10,9): (1,9,9) -2.39279 (1,10,8) 1.82627 (1,10,10) -0.377882 (1,11,9) 0.675472
(1,10,10): (1,9,10) -1.06590 (1,10,9) 0.377882 (1,11,10) 0.488264
(1,11,1): (1,10,1) -0.197833 (1,11,2) 0.234925 (1,12,1) 1.338004E-02
(1,11,2): (1,10,2) -0.360545 (1,11,1) -0.234925 (1,11,3) 0.660095 (1,12,2) -1.621642E-02
(1,11,3): (1,10,3) -0.627414 (1,11,2) -0.660095 (1,11,4) 1.51755 (1,12,3) -0.187346
(1,11,4): (1,10,4) -0.316384 (1,11,3) -1.51755 (1,11,5) 2.69241 (1,12,4) -0.839210
(1,11,5): (1,10,5) 4.68130 (1,11,4) -2.69241 (1,11,6) 0.409561 (1,12,5) -2.45530
(1,11,6): (1,10,6) 3.29054 (1,11,5) -0.409561 (1,11,7) -0.402407 (1,12,6) -2.53892
(1,11,7): (1,10,7) 4.67645 (1,11,6) 0.402407 (1,11,8) -2.67718 (1,12,7) -2.45465
(1,11,8): (1,10,8) -0.332570 (1,11,7) 2.67718 (1,11,9) -1.47953 (1,12,8) -0.837005
(1,11,9): (1,10,9) -0.675472 (1,11,8) 1.47953 (1,11,10) -0.564891 (1,12,9) -0.182190
(1,11,10): (1,10,10) -0.488264 (1,11,9) 0.564891 (1,12,10) -1.060617E-02
(1,12,1): (1,11,1) -1.338004E-02 (1,12,2) 0.205266 (1,13,1) -7.133530E-02
(1,12,2): (1,11,2) 1.621642E-02 (1,12,1) -0.205266 (1,12,3) 0.488175 (1,13,2) -0.147560
(1,12,3): (1,11,3) 0.187346 (1,12,2) -0.488175 (1,12,4) 0.861502 (1,13,3) -0.355509
(1,12,4): (1,11,4) 0.839210 (1,12,3) -0.861502 (1,12,5) 1.07289 (1,13,4) -0.788292
(1,12,5): (1,11,5) 2.45530 (1,12,4) -1.07289 (1,12,6) 0.327366 (1,13,5) -1.41304
(1,12,6): (1,11,6) 2.53892 (1,12,5) -0.327366 (1,12,7) -0.319578 (1,13,6) -1.57529
(1,12,7): (1,11,7) 2.45465 (1,12,6) 0.319578 (1,12,8) -1.05633 (1,13,7) -1.41485
(1,12,8): (1,11,8) 0.837005 (1,12,7) 1.05633 (1,12,9) -0.820732 (1,13,8) -0.794102
(1,12,9): (1,11,9) 0.182190 (1,12,8) 0.820732 (1,12,10) -0.392667 (1,13,9) -0.372211
(1,12,10): (1,11,10) 1.060617E-02 (1,12,9) 0.392667 (1,13,10) -0.193807
(1,13,1): (1,12,1) 7.133530E-02 (1,13,2) 0.128997 (1,14,1) -7.372263E-02
(1,13,2): (1,12,2) 0.147560 (1,13,1) -0.128997 (1,13,3) 0.279956 (1,14,2) -0.132937
(1,13,3): (1,12,3) 0.355509 (1,13,2) -0.279956 (1,13,4) 0.428415 (1,14,3) -0.270006
(1,13,4): (1,12,4) 0.788292 (1,13,3) -0.428415 (1,13,5) 0.450132 (1,14,4) -0.498014
(1,13,5): (1,12,5) 1.41304 (1,13,4) -0.450132 (1,13,6) 0.166961 (1,14,5) -0.756556
(1,13,6): (1,12,6) 1.57529 (1,13,5) -0.166961 (1,13,7) -0.160977 (1,14,6) -0.848043
(1,13,7): (1,12,7) 1.41485 (1,13,6) 0.160977 (1,13,8) -0.437657 (1,14,7) -0.758683
(1,13,8): (1,12,8) 0.794102 (1,13,7) 0.437657 (1,13,9) -0.398734 (1,14,8) -0.504731
(1,13,9): (1,12,9) 0.372211 (1,13,8) 0.398734 (1,13,10) -0.214227 (1,14,9) -0.288273
(1,13,10): (1,12,10) 0.193807 (1,13,9) 0.214227 (1,14,10) -0.178732
(1,14,1): (1,13,1) 7.372263E-02 (1,14,2) 6.978509E-02 (1,15,1) -4.090122E-02
(1,14,2): (1,13,2) 0.132937 (1,14,1) -6.978509E-02 (1,14,3) 0.142874 (1,15,2) -6.972804E-02
(1,14,3): (1,13,3) 0.270006 (1,14,2) -0.142874 (1,14,4) 0.200562 (1,15,3) -0.131874
(1,14,4): (1,13,4) 0.498014 (1,14,3) -0.200562 (1,14,5) 0.192353 (1,15,4) -0.225126
(1,14,5): (1,13,5) 0.756556 (1,14,4) -0.192353 (1,14,6) 7.606957E-02 (1,15,5) -0.319948
(1,14,6): (1,13,6) 0.848043 (1,14,5) -7.606957E-02 (1,14,7) -7.220363E-02 (1,15,6) -0.356703
(1,14,7): (1,13,7) 0.758683 (1,14,6) 7.220363E-02 (1,14,8) -0.184491 (1,15,7) -0.321199
(1,14,8): (1,13,8) 0.504731 (1,14,7) 0.184491 (1,14,9) -0.182499 (1,15,8) -0.229032
(1,14,9): (1,13,9) 0.288273 (1,14,8) 0.182499 (1,14,10) -0.104765 (1,15,9) -0.142222
(1,14,10): (1,13,10) 0.178732 (1,14,9) 0.104765 (1,15,10) -9.460133E-02
(1,15,1): (1,14,1) 4.090122E-02 (1,15,2) 4.095825E-02
(1,15,2): (1,14,2) 6.972804E-02 (1,15,1) -4.095825E-02 (1,15,3) 8.072144E-02
(1,15,3): (1,14,3) 0.131874 (1,15,2) -8.072144E-02 (1,15,4) 0.107334
(1,15,4): (1,14,4) 0.225126 (1,15,3) -0.107334 (1,15,5) 9.764970E-02
(1,15,5): (1,14,5) 0.319948 (1,15,4) -9.764970E-02 (1,15,6) 3.941570E-02
(1,15,6): (1,14,6) 0.356703 (1,15,5) -3.941570E-02 (1,15,7) -3.679916E-02
(1,15,7): (1,14,7) 0.321199 (1,15,6) 3.679916E-02 (1,15,8) -9.244692E-02
(1,15,8): (1,14,8) 0.229032 (1,15,7) 9.244692E-02 (1,15,9) -9.572937E-02
(1,15,9): (1,14,9) 0.142222 (1,15,8) 9.572937E-02 (1,15,10) -5.716214E-02
(1,15,10): (1,14,10) 9.460133E-02 (1,15,9) 5.716214E-02

 WEL PACKAGE (WEL-1) FLOW RATES   PERIOD      2   STEP       67
 ----------------------------------------------------------------------------------------
   NUMBER   CELLID                    RATE       NAME                                    
 ----------------------------------------------------------------------------------------
     1      (1,8,6)              -207.25235      WEL                                     
 ----------------------------------------------------------------------------------------




 DRN PACKAGE (DRN-0) FLOW RATES   PERIOD      2   STEP       67
 ----------------------------------------------------------------------------------------
   NUMBER   CELLID                    RATE       NAME                                    
 ----------------------------------------------------------------------------------------
     1      (1,1,1)               0.0000000      SURF                                    
     2      (1,1,2)               0.0000000      SURF                                    
     3      (1,1,3)               0.0000000      SURF                                    
     4      (1,1,4)               0.0000000      SURF                                    
     5      (1,1,5)               0.0000000      SURF                                    
     6      (1,1,6)               0.0000000      SURF                                    
     7      (1,1,7)               0.0000000      SURF                                    
     8      (1,1,8)               0.0000000      SURF                                    
     9      (1,1,9)               0.0000000      SURF                                    
     10     (1,1,10)              0.0000000      SURF                                    
     11     (1,2,1)               0.0000000      SURF                                    
     12     (1,2,2)               0.0000000      SURF                                    
     13     (1,2,3)               0.0000000      SURF                                    
     14     (1,2,4)               0.0000000      SURF                                    
     15     (1,2,5)               0.0000000      SURF                                    
     16     (1,2,6)               0.0000000      SURF                                    
     17     (1,2,7)               0.0000000      SURF                                    
     18     (1,2,8)               0.0000000      SURF                                    
     19     (1,2,9)               0.0000000      SURF                                    
     20     (1,2,10)              0.0000000      SURF                                    
     21     (1,3,1)               0.0000000      SURF                                    
     22     (1,3,2)               0.0000000      SURF                                    
     23     (1,3,3)               0.0000000      SURF                                    
     24     (1,3,4)               0.0000000      SURF                                    
     25     (1,3,5)               0.0000000      SURF                                    
     26     (1,3,6)               0.0000000      SURF                                    
     27     (1,3,7)               0.0000000      SURF                                    
     28     (1,3,8)               0.0000000      SURF                                    
     29     (1,3,9)               0.0000000      SURF                                    
     30     (1,3,10)              0.0000000      SURF                                    
     31     (1,4,1)               0.0000000      SURF                                    
     32     (1,4,2)               0.0000000      SURF                                    
     33     (1,4,3)               0.0000000      SURF                                    
     34     (1,4,4)               0.0000000      SURF                                    
     35     (1,4,5)               0.0000000      SURF                                    
     36     (1,4,6)               0.0000000      SURF                                    
     37     (1,4,7)               0.0000000      SURF                                    
     38     (1,4,8)               0.0000000      SURF                                    
     39     (1,4,9)               0.0000000      SURF                                    
     40     (1,4,10)              0.0000000      SURF                                    
     41     (1,5,1)               0.0000000      SURF                                    
     42     (1,5,2)               0.0000000      SURF                                    
     43     (1,5,3)               0.0000000      SURF                                    
     44     (1,5,4)               0.0000000      SURF                                    
     45     (1,5,5)               0.0000000      SURF                                    
     46     (1,5,6)               0.0000000      SURF                                    
     47     (1,5,7)               0.0000000      SURF                                    
     48     (1,5,8)               0.0000000      SURF                                    
     49     (1,5,9)               0.0000000      SURF                                    
     50     (1,5,10)              0.0000000      SURF                                    
     51     (1,6,1)               0.0000000      SURF                                    
     52     (1,6,2)               0.0000000      SURF                                    
     53     (1,6,3)               0.0000000      SURF                                    
     54     (1,6,4)               0.0000000      SURF                                    
     55     (1,6,5)               0.0000000      SURF                                    
     56     (1,6,6)               0.0000000      SURF                                    
     57     (1,6,7)              -3.26210284E-07 SURF                                    
     58     (1,6,8)               0.0000000      SURF                                    
     59     (1,6,9)               0.0000000      SURF                                    
     60     (1,6,10)              0.0000000      SURF                                    
     61     (1,7,1)               0.0000000      SURF                                    
     62     (1,7,2)               0.0000000      SURF                                    
     63     (1,7,3)               0.0000000      SURF                                    
     64     (1,7,4)               0.0000000      SURF                                    
     65     (1,7,5)               0.0000000      SURF                                    
     66     (1,7,6)               0.0000000      SURF                                    
     67     (1,7,7)               0.0000000      SURF                                    
     68     (1,7,8)               0.0000000      SURF                                    
     69     (1,7,9)               0.0000000      SURF                                    
     70     (1,7,10)              0.0000000      SURF                                    
     71     (1,8,1)               0.0000000      SURF                                    
     72     (1,8,2)               0.0000000      SURF                                    
     73     (1,8,3)               0.0000000      SURF                                    
     74     (1,8,4)               0.0000000      SURF                                    
     75     (1,8,5)               0.0000000      SURF                                    
     76     (1,8,6)               0.0000000      SURF                                    
     77     (1,8,7)               0.0000000      SURF                                    
     78     (1,8,8)               0.0000000      SURF                                    
     79     (1,8,9)               0.0000000      SURF                                    
     80     (1,8,10)              0.0000000      SURF                                    
     81     (1,9,1)               0.0000000      SURF                                    
     82     (1,9,2)               0.0000000      SURF                                    
     83     (1,9,3)               0.0000000      SURF                                    
     84     (1,9,4)               0.0000000      SURF                                    
     85     (1,9,5)               0.0000000      SURF                                    
     86     (1,9,6)               0.0000000      SURF                                    
     87     (1,9,7)               0.0000000      SURF                                    
     88     (1,9,8)               0.0000000      SURF                                    
     89     (1,9,9)               0.0000000      SURF                                    
     90     (1,9,10)              0.0000000      SURF                                    
     91     (1,10,1)              0.0000000      SURF                                    
     92     (1,10,2)              0.0000000      SURF                                    
     93     (1,10,3)              0.0000000      SURF                                    
     94     (1,10,4)              0.0000000      SURF                                    
     95     (1,10,5)              0.0000000      SURF                                    
     96     (1,10,6)              0.0000000      SURF                                    
     97     (1,10,7)              0.0000000      SURF                                    
     98     (1,10,8)              0.0000000      SURF                                    
     99     (1,10,9)              0.0000000      SURF                                    
    100     (1,10,10)             0.0000000      SURF                                    
    101     (1,11,1)              0.0000000      SURF                                    
    102     (1,11,2)              0.0000000      SURF                                    
    103     (1,11,3)              0.0000000      SURF                                    
    104     (1,11,4)              0.0000000      SURF                                    
    105     (1,11,5)              0.0000000      SURF                                    
    106     (1,11,6)              0.0000000      SURF                                    
    107     (1,11,7)              0.0000000      SURF                                    
    108     (1,11,8)              0.0000000      SURF                                    
    109     (1,11,9)              0.0000000      SURF                                    
    110     (1,11,10)             0.0000000      SURF                                    
    111     (1,12,1)              0.0000000      SURF                                    
    112     (1,12,2)              0.0000000      SURF                                    
    113     (1,12,3)              0.0000000      SURF                                    
    114     (1,12,4)              0.0000000      SURF                                    
    115     (1,12,5)              0.0000000      SURF                                    
    116     (1,12,6)              0.0000000      SURF                                    
    117     (1,12,7)              0.0000000      SURF                                    
    118     (1,12,8)              0.0000000      SURF                                    
    119     (1,12,9)              0.0000000      SURF                                    
    120     (1,12,10)             0.0000000      SURF                                    
    121     (1,13,1)              0.0000000      SURF                                    
    122     (1,13,2)              0.0000000      SURF                                    
    123     (1,13,3)              0.0000000      SURF                                    
    124     (1,13,4)              0.0000000      SURF                                    
    125     (1,13,5)              0.0000000      SURF                                    
    126     (1,13,6)              0.0000000      SURF                                    
    127     (1,13,7)              0.0000000      SURF                                    
    128     (1,13,8)              0.0000000      SURF                                    
    129     (1,13,9)              0.0000000      SURF                                    
    130     (1,13,10)             0.0000000      SURF                                    
    131     (1,14,1)              0.0000000      SURF                                    
    132     (1,14,2)              0.0000000      SURF                                    
    133     (1,14,3)              0.0000000      SURF                                    
    134     (1,14,4)              0.0000000      SURF                                    
    135     (1,14,5)              0.0000000      SURF                                    
    136     (1,14,6)              0.0000000      SURF                                    
    137     (1,14,7)              0.0000000      SURF                                    
    138     (1,14,8)              0.0000000      SURF                                    
    139     (1,14,9)              0.0000000      SURF                                    
    140     (1,14,10)             0.0000000      SURF                                    
    141     (1,15,1)              0.0000000      SURF                                    
    142     (1,15,2)              0.0000000      SURF                                    
    143     (1,15,3)              0.0000000      SURF                                    
    144     (1,15,4)              0.0000000      SURF                                    
    145     (1,15,5)              0.0000000      SURF                                    
    146     (1,15,6)              0.0000000      SURF                                    
    147     (1,15,7)              0.0000000      SURF                                    
    148     (1,15,8)              0.0000000      SURF                                    
    149     (1,15,9)              0.0000000      SURF                                    
    150     (1,15,10)             0.0000000      SURF                                    
 ----------------------------------------------------------------------------------------




 API PACKAGE (MAR) FLOW RATES   PERIOD      2   STEP       67
 -----------------------------------------------
   NUMBER   CELLID                    RATE      
 -----------------------------------------------
     1      (1,6,5)               35.600857     
     2      (1,6,6)               35.600857     
     3      (1,6,7)               35.600857     
     4      (1,10,5)              33.483258     
     5      (1,10,6)              33.483258     
     6      (1,10,7)              33.483258     
 -----------------------------------------------



1
  HEAD IN LAYER   1 AT END OF TIME STEP  67 IN STRESS PERIOD    2
  ---------------------------------------------------------------------------

            1           2           3           4           5           6           7           8           9          10
 ........................................................................................................................
   1   9.0934E-03  1.3675E-02  2.2578E-02  3.4228E-02  4.4702E-02  4.8930E-02  4.5046E-02  3.5225E-02  2.4971E-02  1.8798E-02
   2   1.3723E-02  2.1305E-02  3.6589E-02  5.7681E-02  7.7663E-02  8.5565E-02  7.8159E-02  5.9138E-02  4.0161E-02  2.9168E-02
   3   2.1976E-02  3.5625E-02  6.4754E-02  0.1085      0.1540      0.1709      0.1548      0.1108      7.0376E-02  4.8454E-02
   4   2.9941E-02  5.1270E-02  0.1011      0.1875      0.2939      0.3263      0.2949      0.1904      0.1086      6.9049E-02
   5   2.8922E-02  5.3184E-02  0.1201      0.2714      0.5357      0.5766      0.5367      0.2741      0.1272      7.0513E-02
   6   8.6095E-03  1.6618E-02  5.7862E-02  0.2458      0.9996      0.9200       1.000      0.2468      6.0044E-02  2.1020E-02
   7  -2.8385E-02 -6.7620E-02 -0.1755     -0.4196     -0.9397      -2.149     -0.9399     -0.4211     -0.1815     -8.8044E-02
   8  -4.9280E-02 -0.1182     -0.3297     -0.9204      -2.682      -9.244      -2.682     -0.9234     -0.3405     -0.1529    
   9  -3.0540E-02 -7.0167E-02 -0.1790     -0.4259     -0.9552      -2.168     -0.9555     -0.4277     -0.1856     -9.1594E-02
  10   4.9192E-03  1.2152E-02  5.1265E-02  0.2304      0.9449      0.8590      0.9451      0.2309      5.2429E-02  1.4838E-02
  11   2.4654E-02  4.8034E-02  0.1133      0.2612      0.5172      0.5560      0.5179      0.2633      0.1192      6.3357E-02
  12   2.5988E-02  4.6420E-02  9.4779E-02  0.1794      0.2837      0.3155      0.2845      0.1818      0.1012      6.2303E-02
  13   1.8873E-02  3.1732E-02  5.9562E-02  0.1020      0.1463      0.1628      0.1469      0.1038      6.4328E-02  4.3043E-02
  14   1.1515E-02  1.8481E-02  3.2721E-02  5.2673E-02  7.1771E-02  7.9318E-02  7.2154E-02  5.3837E-02  3.5685E-02  2.5246E-02
  15   7.4295E-03  1.1521E-02  1.9577E-02  3.0278E-02  4.0004E-02  4.3928E-02  4.0265E-02  3.1057E-02  2.1514E-02  1.5810E-02

 HEAD WILL BE SAVED ON UNIT 1100 AT END OF TIME STEP   67, STRESS PERIOD    2


  VOLUME BUDGET FOR ENTIRE MODEL AT END OF TIME STEP   67, STRESS PERIOD   2
  ---------------------------------------------------------------------------------------------------

     CUMULATIVE VOLUME      L**3       RATES FOR THIS TIME STEP      L**3/T          PACKAGE NAME    
     ------------------                 ------------------------                     ----------------

           IN:                                      IN:
           ---                                      ---
              STO-SS =          23.5578                STO-SS =       9.9926E-03     STORAGE                          
              STO-SY =       58588.6886                STO-SY =          20.9238     STORAGE                          
                 WEL =           0.0000                   WEL =           0.0000     WEL-1                            
                 DRN =           0.0000                   DRN =           0.0000     DRN-0                            
                 API =      136824.1218                   API =         207.2523     MAR                              
                 CHD =       2.0279E-08                   CHD =           0.0000     CHD_0                            

            TOTAL IN =      195436.3681              TOTAL IN =         228.1861

          OUT:                                     OUT:
          ----                                     ----
              STO-SS =          19.9921                STO-SS =       1.0586E-02     STORAGE                          
              STO-SY =       39023.4477                STO-SY =          20.9232     STORAGE                          
                 WEL =      156392.9280                   WEL =         207.2523     WEL-1                            
                 DRN =       2.2501E-04                   DRN =       3.2621E-07     DRN-0                            
                 API =           0.0000                   API =           0.0000     MAR                              
                 CHD =       2.0705E-08                   CHD =           0.0000     CHD_0                            

           TOTAL OUT =      195436.3681             TOTAL OUT =         228.1861

            IN - OUT =      -1.1193E-06              IN - OUT =       8.2119E-10

 PERCENT DISCREPANCY =          -0.00     PERCENT DISCREPANCY =           0.00




         TIME SUMMARY AT END OF TIME STEP   67 IN STRESS PERIOD    2
                    SECONDS     MINUTES      HOURS       DAYS        YEARS
                    -----------------------------------------------------------
   TIME STEP LENGTH 8.64000E+05  14400.      240.00      10.000     2.73785E-02
 STRESS PERIOD TIME 5.78880E+07 9.64800E+05  16080.      670.00      1.8344    
         TOTAL TIME 5.79744E+07 9.66240E+05  16104.      671.00      1.8371    


end timestep


start timestep kper="2" kstp="68" mode="normal"

 UBDSV1 SAVING           STO-SS ON UNIT   1099 AT TIME STEP     68, STRESS PERIOD      2
 UBDSV1 SAVING           STO-SY ON UNIT   1099 AT TIME STEP     68, STRESS PERIOD      2
 UBDSV1 SAVING     FLOW-JA-FACE ON UNIT   1099 AT TIME STEP     68, STRESS PERIOD      2
 UBDSV06 SAVING       DATA-SPDIS IN MODEL GWF              PACKAGE NPF             CONNECTED TO MODEL GWF              PACKAGE NPF              ON UNIT   1099 AT TIME STEP     68, STRESS PERIOD      2
 UBDSV06 SAVING              WEL IN MODEL GWF              PACKAGE GWF             CONNECTED TO MODEL GWF              PACKAGE WEL-1            ON UNIT   1099 AT TIME STEP     68, STRESS PERIOD      2
 UBDSV06 SAVING              DRN IN MODEL GWF              PACKAGE GWF             CONNECTED TO MODEL GWF              PACKAGE DRN-0            ON UNIT   1099 AT TIME STEP     68, STRESS PERIOD      2
 UBDSV06 SAVING              API IN MODEL GWF              PACKAGE GWF             CONNECTED TO MODEL GWF              PACKAGE MAR              ON UNIT   1099 AT TIME STEP     68, STRESS PERIOD      2
 UBDSV06 SAVING              CHD IN MODEL GWF              PACKAGE GWF             CONNECTED TO MODEL GWF              PACKAGE CHD_0            ON UNIT   1099 AT TIME STEP     68, STRESS PERIOD      2

    CALCULATED INTERCELL FLOW FOR PERIOD 2 STEP 68
(1,1,1): (1,1,2) 4.725564E-02 (1,2,1) 4.733444E-02
(1,1,2): (1,1,1) -4.725564E-02 (1,1,3) 9.165316E-02 (1,2,2) 7.766041E-02
(1,1,3): (1,1,2) -9.165316E-02 (1,1,4) 0.119697 (1,2,3) 0.142225
(1,1,4): (1,1,3) -0.119697 (1,1,5) 0.107475 (1,2,4) 0.237975
(1,1,5): (1,1,4) -0.107475 (1,1,6) 4.341381E-02 (1,2,5) 0.334709
(1,1,6): (1,1,5) -4.341381E-02 (1,1,7) -3.971436E-02 (1,2,6) 0.372226
(1,1,7): (1,1,6) 3.971436E-02 (1,1,8) -0.100531 (1,2,7) 0.336314
(1,1,8): (1,1,7) 0.100531 (1,1,9) -0.105027 (1,2,8) 0.242778
(1,1,9): (1,1,8) 0.105027 (1,1,10) -6.325408E-02 (1,2,9) 0.154374
(1,1,10): (1,1,9) 6.325408E-02 (1,2,10) 0.105652
(1,2,1): (1,1,1) -4.733444E-02 (1,2,2) 7.758159E-02 (1,3,1) 8.373401E-02
(1,2,2): (1,1,2) -7.766041E-02 (1,2,1) -7.758159E-02 (1,2,3) 0.156227 (1,3,2) 0.144883
(1,2,3): (1,1,3) -0.142225 (1,2,2) -0.156227 (1,2,4) 0.215427 (1,3,3) 0.284953
(1,2,4): (1,1,4) -0.237975 (1,2,3) -0.215427 (1,2,5) 0.204086 (1,3,4) 0.516200
(1,2,5): (1,1,5) -0.334709 (1,2,4) -0.204086 (1,2,6) 8.082376E-02 (1,3,5) 0.778057
(1,2,6): (1,1,6) -0.372226 (1,2,5) -8.082376E-02 (1,2,7) -7.552204E-02 (1,3,6) 0.870760
(1,2,7): (1,1,7) -0.336314 (1,2,6) 7.552204E-02 (1,2,8) -0.193936 (1,3,7) 0.780763
(1,2,8): (1,1,8) -0.242778 (1,2,7) 0.193936 (1,2,9) -0.193388 (1,3,8) 0.524357
(1,2,9): (1,1,9) -0.154374 (1,2,8) 0.193388 (1,2,10) -0.111956 (1,3,9) 0.306038
(1,2,10): (1,1,10) -0.105652 (1,2,9) 0.111956 (1,3,10) 0.195391
(1,3,1): (1,2,1) -8.373401E-02 (1,3,2) 0.138727 (1,4,1) 7.929853E-02
(1,3,2): (1,2,2) -0.144883 (1,3,1) -0.138727 (1,3,3) 0.296312 (1,4,2) 0.156206
(1,3,3): (1,2,3) -0.284953 (1,3,2) -0.296312 (1,3,4) 0.446517 (1,4,3) 0.365387
(1,3,4): (1,2,4) -0.516200 (1,3,3) -0.446517 (1,3,5) 0.465156 (1,4,4) 0.802182
(1,3,5): (1,2,5) -0.778057 (1,3,4) -0.465156 (1,3,6) 0.172910 (1,4,5) 1.43855
(1,3,6): (1,2,6) -0.870760 (1,3,5) -0.172910 (1,3,7) -0.164914 (1,4,6) 1.60417
(1,3,7): (1,2,7) -0.780763 (1,3,6) 0.164914 (1,3,8) -0.449527 (1,4,7) 1.44089
(1,3,8): (1,2,8) -0.524357 (1,3,7) 0.449527 (1,3,9) -0.411467 (1,4,8) 0.809232
(1,3,9): (1,2,9) -0.306038 (1,3,8) 0.411467 (1,3,10) -0.222513 (1,4,9) 0.384353
(1,3,10): (1,2,10) -0.195391 (1,3,9) 0.222513 (1,4,10) 0.205858
(1,4,1): (1,3,1) -7.929853E-02 (1,4,2) 0.215679 (1,5,1) -1.399820E-02
(1,4,2): (1,3,2) -0.156206 (1,4,1) -0.215679 (1,4,3) 0.505780 (1,5,2) 1.396787E-02
(1,4,3): (1,3,3) -0.365387 (1,4,2) -0.505780 (1,4,4) 0.883652 (1,5,3) 0.184992
(1,4,4): (1,3,4) -0.802182 (1,4,3) -0.883652 (1,4,5) 1.09951 (1,5,4) 0.853654
(1,4,5): (1,3,5) -1.43855 (1,4,4) -1.09951 (1,4,6) 0.336620 (1,5,5) 2.54066
(1,4,6): (1,3,6) -1.60417 (1,4,5) -0.336620 (1,4,7) -0.326293 (1,5,6) 2.64004
(1,4,7): (1,3,7) -1.44089 (1,4,6) 0.326293 (1,4,8) -1.07906 (1,5,7) 2.54011
(1,4,8): (1,3,8) -0.809232 (1,4,7) 1.07906 (1,4,9) -0.836457 (1,5,8) 0.851554
(1,4,9): (1,3,9) -0.384353 (1,4,8) 0.836457 (1,4,10) -0.401036 (1,5,9) 0.179695
(1,4,10): (1,3,10) -0.205858 (1,4,9) 0.401036 (1,5,10) 7.329141E-03
(1,5,1): (1,4,1) 1.399820E-02 (1,5,2) 0.243707 (1,6,1) -0.210550
(1,5,2): (1,4,2) -1.396787E-02 (1,5,1) -0.243707 (1,5,3) 0.677626 (1,6,2) -0.376922
(1,5,3): (1,4,3) -0.184992 (1,5,2) -0.677626 (1,5,4) 1.55675 (1,6,3) -0.642764
(1,5,4): (1,4,4) -0.853654 (1,5,3) -1.55675 (1,5,5) 2.79026 (1,6,4) -0.277950
(1,5,5): (1,4,5) -2.54066 (1,5,4) -2.79026 (1,5,6) 0.434236 (1,6,5) 5.09133
(1,5,6): (1,4,6) -2.64004 (1,5,5) -0.434236 (1,5,7) -0.424435 (1,6,6) 3.74195
(1,5,7): (1,4,7) -2.54011 (1,5,6) 0.424435 (1,5,8) -2.77108 (1,6,7) 5.08586
(1,5,8): (1,4,8) -0.851554 (1,5,7) 2.77108 (1,5,9) -1.51251 (1,6,8) -0.295766
(1,5,9): (1,4,9) -0.179695 (1,5,8) 1.51251 (1,5,10) -0.574064 (1,6,9) -0.694378
(1,5,10): (1,4,10) -7.329141E-03 (1,5,9) 0.574064 (1,6,10) -0.511456
(1,6,1): (1,5,1) 0.210550 (1,6,2) 7.755402E-02 (1,7,1) -0.377315
(1,6,2): (1,5,2) 0.376922 (1,6,1) -7.755402E-02 (1,6,3) 0.411695 (1,7,2) -0.853385
(1,6,3): (1,5,3) 0.642764 (1,6,2) -0.411695 (1,6,4) 1.92610 (1,7,3) -2.36103
(1,6,4): (1,5,4) 0.277950 (1,6,3) -1.92610 (1,6,5) 8.30180 (1,7,4) -6.83541
(1,6,5): (1,5,5) -5.09133 (1,6,4) -8.30180 (1,6,6) -0.870698 (1,7,5) -21.3539
(1,6,6): (1,5,6) -3.74195 (1,6,5) 0.870698 (1,6,7) 0.875266 (1,7,6) -33.5380
(1,6,7): (1,5,7) -5.08586 (1,6,6) -0.875266 (1,6,8) -8.29517 (1,7,7) -21.3622
(1,6,8): (1,5,8) 0.295766 (1,6,7) 8.29517 (1,6,9) -1.91583 (1,7,8) -6.86282
(1,6,9): (1,5,9) 0.694378 (1,6,8) 1.91583 (1,6,10) -0.391353 (1,7,9) -2.44600
(1,6,10): (1,5,10) 0.511456 (1,6,9) 0.391353 (1,7,10) -1.10629
(1,7,1): (1,6,1) 0.377315 (1,7,2) -0.396417 (1,8,1) -0.211343
(1,7,2): (1,6,2) 0.853385 (1,7,1) 0.396417 (1,7,3) -1.07876 (1,8,2) -0.506551
(1,7,3): (1,6,3) 2.36103 (1,7,2) 1.07876 (1,7,4) -2.40080 (1,8,3) -1.52101
(1,7,4): (1,6,4) 6.83541 (1,7,3) 2.40080 (1,7,5) -4.97460 (1,8,4) -4.80445
(1,7,5): (1,6,5) 21.3539 (1,7,4) 4.97460 (1,7,6) -10.9509 (1,8,5) -15.7888
(1,7,6): (1,6,6) 33.5380 (1,7,5) 10.9509 (1,7,7) 10.9481 (1,8,6) -55.6822
(1,7,7): (1,6,7) 21.3622 (1,7,6) -10.9481 (1,7,8) 4.96141 (1,8,7) -15.7929
(1,7,8): (1,6,8) 6.86282 (1,7,7) -4.96141 (1,7,9) 2.35243 (1,8,8) -4.81894
(1,7,9): (1,6,9) 2.44600 (1,7,8) -2.35243 (1,7,10) 0.930053 (1,8,9) -1.56705
(1,7,10): (1,6,10) 1.10629 (1,7,9) -0.930053 (1,8,10) -0.648683
(1,8,1): (1,7,1) 0.211343 (1,8,2) -0.692179 (1,9,1) 0.189917
(1,8,2): (1,7,2) 0.506551 (1,8,1) 0.692179 (1,8,3) -2.09919 (1,9,2) 0.481123
(1,8,3): (1,7,3) 1.52101 (1,8,2) 2.09919 (1,8,4) -5.71531 (1,9,3) 1.48560
(1,8,4): (1,7,4) 4.80445 (1,8,3) 5.71531 (1,8,5) -15.9810 (1,9,4) 4.73579
(1,8,5): (1,7,5) 15.7888 (1,8,4) 15.9810 (1,8,6) -47.9864 (1,9,5) 15.6060
(1,8,6): (1,7,6) 55.6822 (1,8,5) 47.9864 (1,8,7) 47.9756 (1,9,6) 55.3810
(1,8,7): (1,7,7) 15.7929 (1,8,6) -47.9756 (1,8,8) 15.9538 (1,9,7) 15.6087
(1,8,8): (1,7,8) 4.81894 (1,8,7) -15.9538 (1,8,9) 5.63182 (1,9,8) 4.74709
(1,8,9): (1,7,9) 1.56705 (1,8,8) -5.63182 (1,8,10) 1.85109 (1,9,9) 1.52559
(1,8,10): (1,7,10) 0.648683 (1,8,9) -1.85109 (1,9,10) 0.613402
(1,9,1): (1,8,1) -0.189917 (1,9,2) -0.400352 (1,10,1) 0.361792
(1,9,2): (1,8,2) -0.481123 (1,9,1) 0.400352 (1,9,3) -1.08843 (1,10,2) 0.833655
(1,9,3): (1,8,3) -1.48560 (1,9,2) 1.08843 (1,9,4) -2.43201 (1,10,3) 2.32653
(1,9,4): (1,8,4) -4.73579 (1,9,3) 2.43201 (1,9,5) -5.06808 (1,10,4) 6.72489
(1,9,5): (1,8,5) -15.6060 (1,9,4) 5.06808 (1,9,6) -10.9596 (1,10,5) 20.7867
(1,9,6): (1,8,6) -55.3810 (1,9,5) 10.9596 (1,9,7) 10.9555 (1,10,6) 32.8468
(1,9,7): (1,8,7) -15.6087 (1,9,6) -10.9555 (1,9,8) 5.05294 (1,10,7) 20.7939
(1,9,8): (1,8,8) -4.74709 (1,9,7) -5.05294 (1,9,9) 2.38064 (1,10,8) 6.75000
(1,9,9): (1,8,9) -1.52559 (1,9,8) -2.38064 (1,9,10) 0.935856 (1,10,9) 2.40712
(1,9,10): (1,8,10) -0.613402 (1,9,9) -0.935856 (1,10,10) 1.07915
(1,10,1): (1,9,1) -0.361792 (1,10,2) 6.952847E-02 (1,11,1) 0.204592
(1,10,2): (1,9,2) -0.833655 (1,10,1) -6.952847E-02 (1,10,3) 0.387880 (1,11,2) 0.370051
(1,10,3): (1,9,3) -2.32653 (1,10,2) -0.387880 (1,10,4) 1.82357 (1,11,3) 0.641807
(1,10,4): (1,9,4) -6.72489 (1,10,3) -1.82357 (1,10,5) 7.79938 (1,11,4) 0.337854
(1,10,5): (1,9,5) -20.7867 (1,10,4) -7.79938 (1,10,6) -0.941972 (1,11,5) -4.64259
(1,10,6): (1,9,6) -32.8468 (1,10,5) 0.941972 (1,10,7) 0.944397 (1,11,6) -3.25068
(1,10,7): (1,9,7) -20.7939 (1,10,6) -0.944397 (1,10,8) -7.79605 (1,11,7) -4.63747
(1,10,8): (1,9,8) -6.75000 (1,10,7) 7.79605 (1,10,9) -1.81842 (1,11,8) 0.354805
(1,10,9): (1,9,9) -2.40712 (1,10,8) 1.81842 (1,10,10) -0.374407 (1,11,9) 0.691684
(1,10,10): (1,9,10) -1.07915 (1,10,9) 0.374407 (1,11,10) 0.501496
(1,11,1): (1,10,1) -0.204592 (1,11,2) 0.234766 (1,12,1) 1.697371E-02
(1,11,2): (1,10,2) -0.370051 (1,11,1) -0.234766 (1,11,3) 0.659683 (1,12,2) -1.097626E-02
(1,11,3): (1,10,3) -0.641807 (1,11,2) -0.659683 (1,11,4) 1.51611 (1,12,3) -0.179101
(1,11,4): (1,10,4) -0.337854 (1,11,3) -1.51611 (1,11,5) 2.68809 (1,12,4) -0.826702
(1,11,5): (1,10,5) 4.64259 (1,11,4) -2.68809 (1,11,6) 0.409211 (1,12,5) -2.43660
(1,11,6): (1,10,6) 3.25068 (1,11,5) -0.409211 (1,11,7) -0.401858 (1,12,6) -2.51885
(1,11,7): (1,10,7) 4.63747 (1,11,6) 0.401858 (1,11,8) -2.67263 (1,12,7) -2.43581
(1,11,8): (1,10,8) -0.354805 (1,11,7) 2.67263 (1,11,9) -1.47785 (1,12,8) -0.824104
(1,11,9): (1,10,9) -0.691684 (1,11,8) 1.47785 (1,11,10) -0.564362 (1,12,9) -0.172975
(1,11,10): (1,10,10) -0.501496 (1,11,9) 0.564362 (1,12,10) -3.306703E-03
(1,12,1): (1,11,1) -1.697371E-02 (1,12,2) 0.206757 (1,13,1) -7.093219E-02
(1,12,2): (1,11,2) 1.097626E-02 (1,12,1) -0.206757 (1,12,3) 0.490768 (1,13,2) -0.146738
(1,12,3): (1,11,3) 0.179101 (1,12,2) -0.490768 (1,12,4) 0.864289 (1,13,3) -0.353911
(1,12,4): (1,11,4) 0.826702 (1,12,3) -0.864289 (1,12,5) 1.07458 (1,13,4) -0.785597
(1,12,5): (1,11,5) 2.43660 (1,12,4) -1.07458 (1,12,6) 0.328342 (1,13,5) -1.40894
(1,12,6): (1,11,6) 2.51885 (1,12,5) -0.328342 (1,12,7) -0.320225 (1,13,6) -1.57085
(1,12,7): (1,11,7) 2.43581 (1,12,6) 0.320225 (1,12,8) -1.05752 (1,13,7) -1.41075
(1,12,8): (1,11,8) 0.824104 (1,12,7) 1.05752 (1,12,9) -0.822693 (1,13,8) -0.791394
(1,12,9): (1,11,9) 0.172975 (1,12,8) 0.822693 (1,12,10) -0.394045 (1,13,9) -0.370508
(1,12,10): (1,11,10) 3.306703E-03 (1,12,9) 0.394045 (1,13,10) -0.192647
(1,13,1): (1,12,1) 7.093219E-02 (1,13,2) 0.130906 (1,14,1) -7.485788E-02
(1,13,2): (1,12,2) 0.146738 (1,13,1) -0.130906 (1,13,3) 0.283319 (1,14,2) -0.134311
(1,13,3): (1,12,3) 0.353911 (1,13,2) -0.283319 (1,13,4) 0.432277 (1,14,3) -0.271787
(1,13,4): (1,12,4) 0.785597 (1,13,3) -0.432277 (1,13,5) 0.453189 (1,14,4) -0.500230
(1,13,5): (1,12,5) 1.40894 (1,13,4) -0.453189 (1,13,6) 0.168262 (1,14,5) -0.759055
(1,13,6): (1,12,6) 1.57085 (1,13,5) -0.168262 (1,13,7) -0.161956 (1,14,6) -0.850707
(1,13,7): (1,12,7) 1.41075 (1,13,6) 0.161956 (1,13,8) -0.440196 (1,14,7) -0.761249
(1,13,8): (1,12,8) 0.791394 (1,13,7) 0.440196 (1,13,9) -0.401682 (1,14,8) -0.507112
(1,13,9): (1,12,9) 0.370508 (1,13,8) 0.401682 (1,13,10) -0.216142 (1,14,9) -0.290370
(1,13,10): (1,12,10) 0.192647 (1,13,9) 0.216142 (1,14,10) -0.180632
(1,14,1): (1,13,1) 7.485788E-02 (1,14,2) 7.145509E-02 (1,15,1) -4.191148E-02
(1,14,2): (1,13,2) 0.134311 (1,14,1) -7.145509E-02 (1,14,3) 0.145828 (1,15,2) -7.102479E-02
(1,14,3): (1,13,3) 0.271787 (1,14,2) -0.145828 (1,14,4) 0.203985 (1,15,3) -0.133672
(1,14,4): (1,13,4) 0.500230 (1,14,3) -0.203985 (1,14,5) 0.195126 (1,15,4) -0.227496
(1,14,5): (1,13,5) 0.759055 (1,14,4) -0.195126 (1,14,6) 7.720723E-02 (1,15,5) -0.322777
(1,14,6): (1,13,6) 0.850707 (1,14,5) -7.720723E-02 (1,14,7) -7.308617E-02 (1,15,6) -0.359728
(1,14,7): (1,13,7) 0.761249 (1,14,6) 7.308617E-02 (1,14,8) -0.186844 (1,15,7) -0.324081
(1,14,8): (1,13,8) 0.507112 (1,14,7) 0.186844 (1,14,9) -0.185163 (1,15,8) -0.231538
(1,14,9): (1,13,9) 0.290370 (1,14,8) 0.185163 (1,14,10) -0.106484 (1,15,9) -0.144299
(1,14,10): (1,13,10) 0.180632 (1,14,9) 0.106484 (1,15,10) -9.639977E-02
(1,15,1): (1,14,1) 4.191148E-02 (1,15,2) 4.234166E-02
(1,15,2): (1,14,2) 7.102479E-02 (1,15,1) -4.234166E-02 (1,15,3) 8.317292E-02
(1,15,3): (1,14,3) 0.133672 (1,15,2) -8.317292E-02 (1,15,4) 0.110182
(1,15,4): (1,14,4) 0.227496 (1,15,3) -0.110182 (1,15,5) 9.996532E-02
(1,15,5): (1,14,5) 0.322777 (1,15,4) -9.996532E-02 (1,15,6) 4.035805E-02
(1,15,6): (1,14,6) 0.359728 (1,15,5) -4.035805E-02 (1,15,7) -3.753910E-02
(1,15,7): (1,14,7) 0.324081 (1,15,6) 3.753910E-02 (1,15,8) -9.442603E-02
(1,15,8): (1,14,8) 0.231538 (1,15,7) 9.442603E-02 (1,15,9) -9.796332E-02
(1,15,9): (1,14,9) 0.144299 (1,15,8) 9.796332E-02 (1,15,10) -5.860273E-02
(1,15,10): (1,14,10) 9.639977E-02 (1,15,9) 5.860273E-02

 WEL PACKAGE (WEL-1) FLOW RATES   PERIOD      2   STEP       68
 ----------------------------------------------------------------------------------------
   NUMBER   CELLID                    RATE       NAME                                    
 ----------------------------------------------------------------------------------------
     1      (1,8,6)              -207.11313      WEL                                     
 ----------------------------------------------------------------------------------------




 DRN PACKAGE (DRN-0) FLOW RATES   PERIOD      2   STEP       68
 ----------------------------------------------------------------------------------------
   NUMBER   CELLID                    RATE       NAME                                    
 ----------------------------------------------------------------------------------------
     1      (1,1,1)               0.0000000      SURF                                    
     2      (1,1,2)               0.0000000      SURF                                    
     3      (1,1,3)               0.0000000      SURF                                    
     4      (1,1,4)               0.0000000      SURF                                    
     5      (1,1,5)               0.0000000      SURF                                    
     6      (1,1,6)               0.0000000      SURF                                    
     7      (1,1,7)               0.0000000      SURF                                    
     8      (1,1,8)               0.0000000      SURF                                    
     9      (1,1,9)               0.0000000      SURF                                    
     10     (1,1,10)              0.0000000      SURF                                    
     11     (1,2,1)               0.0000000      SURF                                    
     12     (1,2,2)               0.0000000      SURF                                    
     13     (1,2,3)               0.0000000      SURF                                    
     14     (1,2,4)               0.0000000      SURF                                    
     15     (1,2,5)               0.0000000      SURF                                    
     16     (1,2,6)               0.0000000      SURF                                    
     17     (1,2,7)               0.0000000      SURF                                    
     18     (1,2,8)               0.0000000      SURF                                    
     19     (1,2,9)               0.0000000      SURF                                    
     20     (1,2,10)              0.0000000      SURF                                    
     21     (1,3,1)               0.0000000      SURF                                    
     22     (1,3,2)               0.0000000      SURF                                    
     23     (1,3,3)               0.0000000      SURF                                    
     24     (1,3,4)               0.0000000      SURF                                    
     25     (1,3,5)               0.0000000      SURF                                    
     26     (1,3,6)               0.0000000      SURF                                    
     27     (1,3,7)               0.0000000      SURF                                    
     28     (1,3,8)               0.0000000      SURF                                    
     29     (1,3,9)               0.0000000      SURF                                    
     30     (1,3,10)              0.0000000      SURF                                    
     31     (1,4,1)               0.0000000      SURF                                    
     32     (1,4,2)               0.0000000      SURF                                    
     33     (1,4,3)               0.0000000      SURF                                    
     34     (1,4,4)               0.0000000      SURF                                    
     35     (1,4,5)               0.0000000      SURF                                    
     36     (1,4,6)               0.0000000      SURF                                    
     37     (1,4,7)               0.0000000      SURF                                    
     38     (1,4,8)               0.0000000      SURF                                    
     39     (1,4,9)               0.0000000      SURF                                    
     40     (1,4,10)              0.0000000      SURF                                    
     41     (1,5,1)               0.0000000      SURF                                    
     42     (1,5,2)               0.0000000      SURF                                    
     43     (1,5,3)               0.0000000      SURF                                    
     44     (1,5,4)               0.0000000      SURF                                    
     45     (1,5,5)               0.0000000      SURF                                    
     46     (1,5,6)               0.0000000      SURF                                    
     47     (1,5,7)               0.0000000      SURF                                    
     48     (1,5,8)               0.0000000      SURF                                    
     49     (1,5,9)               0.0000000      SURF                                    
     50     (1,5,10)              0.0000000      SURF                                    
     51     (1,6,1)               0.0000000      SURF                                    
     52     (1,6,2)               0.0000000      SURF                                    
     53     (1,6,3)               0.0000000      SURF                                    
     54     (1,6,4)               0.0000000      SURF                                    
     55     (1,6,5)               0.0000000      SURF                                    
     56     (1,6,6)               0.0000000      SURF                                    
     57     (1,6,7)              -3.25118890E-07 SURF                                    
     58     (1,6,8)               0.0000000      SURF                                    
     59     (1,6,9)               0.0000000      SURF                                    
     60     (1,6,10)              0.0000000      SURF                                    
     61     (1,7,1)               0.0000000      SURF                                    
     62     (1,7,2)               0.0000000      SURF                                    
     63     (1,7,3)               0.0000000      SURF                                    
     64     (1,7,4)               0.0000000      SURF                                    
     65     (1,7,5)               0.0000000      SURF                                    
     66     (1,7,6)               0.0000000      SURF                                    
     67     (1,7,7)               0.0000000      SURF                                    
     68     (1,7,8)               0.0000000      SURF                                    
     69     (1,7,9)               0.0000000      SURF                                    
     70     (1,7,10)              0.0000000      SURF                                    
     71     (1,8,1)               0.0000000      SURF                                    
     72     (1,8,2)               0.0000000      SURF                                    
     73     (1,8,3)               0.0000000      SURF                                    
     74     (1,8,4)               0.0000000      SURF                                    
     75     (1,8,5)               0.0000000      SURF                                    
     76     (1,8,6)               0.0000000      SURF                                    
     77     (1,8,7)               0.0000000      SURF                                    
     78     (1,8,8)               0.0000000      SURF                                    
     79     (1,8,9)               0.0000000      SURF                                    
     80     (1,8,10)              0.0000000      SURF                                    
     81     (1,9,1)               0.0000000      SURF                                    
     82     (1,9,2)               0.0000000      SURF                                    
     83     (1,9,3)               0.0000000      SURF                                    
     84     (1,9,4)               0.0000000      SURF                                    
     85     (1,9,5)               0.0000000      SURF                                    
     86     (1,9,6)               0.0000000      SURF                                    
     87     (1,9,7)               0.0000000      SURF                                    
     88     (1,9,8)               0.0000000      SURF                                    
     89     (1,9,9)               0.0000000      SURF                                    
     90     (1,9,10)              0.0000000      SURF                                    
     91     (1,10,1)              0.0000000      SURF                                    
     92     (1,10,2)              0.0000000      SURF                                    
     93     (1,10,3)              0.0000000      SURF                                    
     94     (1,10,4)              0.0000000      SURF                                    
     95     (1,10,5)              0.0000000      SURF                                    
     96     (1,10,6)              0.0000000      SURF                                    
     97     (1,10,7)              0.0000000      SURF                                    
     98     (1,10,8)              0.0000000      SURF                                    
     99     (1,10,9)              0.0000000      SURF                                    
    100     (1,10,10)             0.0000000      SURF                                    
    101     (1,11,1)              0.0000000      SURF                                    
    102     (1,11,2)              0.0000000      SURF                                    
    103     (1,11,3)              0.0000000      SURF                                    
    104     (1,11,4)              0.0000000      SURF                                    
    105     (1,11,5)              0.0000000      SURF                                    
    106     (1,11,6)              0.0000000      SURF                                    
    107     (1,11,7)              0.0000000      SURF                                    
    108     (1,11,8)              0.0000000      SURF                                    
    109     (1,11,9)              0.0000000      SURF                                    
    110     (1,11,10)             0.0000000      SURF                                    
    111     (1,12,1)              0.0000000      SURF                                    
    112     (1,12,2)              0.0000000      SURF                                    
    113     (1,12,3)              0.0000000      SURF                                    
    114     (1,12,4)              0.0000000      SURF                                    
    115     (1,12,5)              0.0000000      SURF                                    
    116     (1,12,6)              0.0000000      SURF                                    
    117     (1,12,7)              0.0000000      SURF                                    
    118     (1,12,8)              0.0000000      SURF                                    
    119     (1,12,9)              0.0000000      SURF                                    
    120     (1,12,10)             0.0000000      SURF                                    
    121     (1,13,1)              0.0000000      SURF                                    
    122     (1,13,2)              0.0000000      SURF                                    
    123     (1,13,3)              0.0000000      SURF                                    
    124     (1,13,4)              0.0000000      SURF                                    
    125     (1,13,5)              0.0000000      SURF                                    
    126     (1,13,6)              0.0000000      SURF                                    
    127     (1,13,7)              0.0000000      SURF                                    
    128     (1,13,8)              0.0000000      SURF                                    
    129     (1,13,9)              0.0000000      SURF                                    
    130     (1,13,10)             0.0000000      SURF                                    
    131     (1,14,1)              0.0000000      SURF                                    
    132     (1,14,2)              0.0000000      SURF                                    
    133     (1,14,3)              0.0000000      SURF                                    
    134     (1,14,4)              0.0000000      SURF                                    
    135     (1,14,5)              0.0000000      SURF                                    
    136     (1,14,6)              0.0000000      SURF                                    
    137     (1,14,7)              0.0000000      SURF                                    
    138     (1,14,8)              0.0000000      SURF                                    
    139     (1,14,9)              0.0000000      SURF                                    
    140     (1,14,10)             0.0000000      SURF                                    
    141     (1,15,1)              0.0000000      SURF                                    
    142     (1,15,2)              0.0000000      SURF                                    
    143     (1,15,3)              0.0000000      SURF                                    
    144     (1,15,4)              0.0000000      SURF                                    
    145     (1,15,5)              0.0000000      SURF                                    
    146     (1,15,6)              0.0000000      SURF                                    
    147     (1,15,7)              0.0000000      SURF                                    
    148     (1,15,8)              0.0000000      SURF                                    
    149     (1,15,9)              0.0000000      SURF                                    
    150     (1,15,10)             0.0000000      SURF                                    
 ----------------------------------------------------------------------------------------




 API PACKAGE (MAR) FLOW RATES   PERIOD      2   STEP       68
 -----------------------------------------------
   NUMBER   CELLID                    RATE      
 -----------------------------------------------
     1      (1,6,5)               35.618528     
     2      (1,6,6)               35.618528     
     3      (1,6,7)               35.618528     
     4      (1,10,5)              33.419183     
     5      (1,10,6)              33.419183     
     6      (1,10,7)              33.419183     
 -----------------------------------------------



1
  HEAD IN LAYER   1 AT END OF TIME STEP  68 IN STRESS PERIOD    2
  ---------------------------------------------------------------------------

            1           2           3           4           5           6           7           8           9          10
 ........................................................................................................................
   1   9.5661E-03  1.4285E-02  2.3429E-02  3.5356E-02  4.6055E-02  5.0374E-02  4.6423E-02  3.6416E-02  2.5952E-02  1.9643E-02
   2   1.4293E-02  2.2034E-02  3.7598E-02  5.9014E-02  7.9262E-02  8.7275E-02  7.9788E-02  6.0548E-02  4.1325E-02  3.0176E-02
   3   2.2647E-02  3.6470E-02  6.5907E-02  0.1101      0.1559      0.1729      0.1567      0.1124      7.1711E-02  4.9619E-02
   4   3.0553E-02  5.2009E-02  0.1021      0.1888      0.2956      0.3282      0.2966      0.1918      0.1097      7.0061E-02
   5   2.9157E-02  5.3399E-02  0.1204      0.2719      0.5367      0.5778      0.5376      0.2747      0.1275      7.0789E-02
   6   8.1636E-03  1.5907E-02  5.6843E-02  0.2449      0.9996      0.9204       1.000      0.2459      5.8909E-02  2.0003E-02
   7  -2.9537E-02 -6.9296E-02 -0.1779     -0.4224     -0.9417      -2.151     -0.9420     -0.4239     -0.1843     -9.0405E-02
   8  -5.0734E-02 -0.1203     -0.3328     -0.9240      -2.685      -9.245      -2.686     -0.9271     -0.3439     -0.1559    
   9  -3.1682E-02 -7.1844E-02 -0.1815     -0.4292     -0.9587      -2.171     -0.9591     -0.4311     -0.1884     -9.3943E-02
  10   4.4811E-03  1.1426E-02  5.0021E-02  0.2283      0.9412      0.8551      0.9414      0.2288      5.1073E-02  1.3822E-02
  11   2.4889E-02  4.8253E-02  0.1135      0.2612      0.5168      0.5556      0.5175      0.2634      0.1194      6.3655E-02
  12   2.6582E-02  4.7161E-02  9.5772E-02  0.1807      0.2851      0.3170      0.2859      0.1831      0.1023      6.3326E-02
  13   1.9508E-02  3.2556E-02  6.0717E-02  0.1035      0.1482      0.1647      0.1488      0.1054      6.5656E-02  4.4183E-02
  14   1.2037E-02  1.9169E-02  3.3702E-02  5.3991E-02  7.3362E-02  8.1020E-02  7.3771E-02  5.5223E-02  3.6808E-02  2.6199E-02
  15   7.8506E-03  1.2080E-02  2.0380E-02  3.1364E-02  4.1319E-02  4.5337E-02  4.1600E-02  3.2196E-02  2.2431E-02  1.6584E-02

 HEAD WILL BE SAVED ON UNIT 1100 AT END OF TIME STEP   68, STRESS PERIOD    2


  VOLUME BUDGET FOR ENTIRE MODEL AT END OF TIME STEP   68, STRESS PERIOD   2
  ---------------------------------------------------------------------------------------------------

     CUMULATIVE VOLUME      L**3       RATES FOR THIS TIME STEP      L**3/T          PACKAGE NAME    
     ------------------                 ------------------------                     ----------------

           IN:                                      IN:
           ---                                      ---
              STO-SS =          23.6564                STO-SS =       9.8628E-03     STORAGE                          
              STO-SY =       58795.0339                STO-SY =          20.6345     STORAGE                          
                 WEL =           0.0000                   WEL =           0.0000     WEL-1                            
                 DRN =           0.0000                   DRN =           0.0000     DRN-0                            
                 API =      138895.2531                   API =         207.1131     MAR                              
                 CHD =       2.0279E-08                   CHD =           0.0000     CHD_0                            

            TOTAL IN =      197713.9434              TOTAL IN =         227.7575

          OUT:                                     OUT:
          ----                                     ----
              STO-SS =          20.0965                STO-SS =       1.0439E-02     STORAGE                          
              STO-SY =       39229.7872                STO-SY =          20.6340     STORAGE                          
                 WEL =      158464.0594                   WEL =         207.1131     WEL-1                            
                 DRN =       2.2826E-04                   DRN =       3.2512E-07     DRN-0                            
                 API =           0.0000                   API =           0.0000     MAR                              
                 CHD =       2.0705E-08                   CHD =           0.0000     CHD_0                            

           TOTAL OUT =      197713.9434             TOTAL OUT =         227.7575

            IN - OUT =      -1.1110E-06              IN - OUT =       8.2710E-10

 PERCENT DISCREPANCY =          -0.00     PERCENT DISCREPANCY =           0.00




         TIME SUMMARY AT END OF TIME STEP   68 IN STRESS PERIOD    2
                    SECONDS     MINUTES      HOURS       DAYS        YEARS
                    -----------------------------------------------------------
   TIME STEP LENGTH 8.64000E+05  14400.      240.00      10.000     2.73785E-02
 STRESS PERIOD TIME 5.87520E+07 9.79200E+05  16320.      680.00      1.8617    
         TOTAL TIME 5.88384E+07 9.80640E+05  16344.      681.00      1.8645    


end timestep


start timestep kper="2" kstp="69" mode="normal"

 UBDSV1 SAVING           STO-SS ON UNIT   1099 AT TIME STEP     69, STRESS PERIOD      2
 UBDSV1 SAVING           STO-SY ON UNIT   1099 AT TIME STEP     69, STRESS PERIOD      2
 UBDSV1 SAVING     FLOW-JA-FACE ON UNIT   1099 AT TIME STEP     69, STRESS PERIOD      2
 UBDSV06 SAVING       DATA-SPDIS IN MODEL GWF              PACKAGE NPF             CONNECTED TO MODEL GWF              PACKAGE NPF              ON UNIT   1099 AT TIME STEP     69, STRESS PERIOD      2
 UBDSV06 SAVING              WEL IN MODEL GWF              PACKAGE GWF             CONNECTED TO MODEL GWF              PACKAGE WEL-1            ON UNIT   1099 AT TIME STEP     69, STRESS PERIOD      2
 UBDSV06 SAVING              DRN IN MODEL GWF              PACKAGE GWF             CONNECTED TO MODEL GWF              PACKAGE DRN-0            ON UNIT   1099 AT TIME STEP     69, STRESS PERIOD      2
 UBDSV06 SAVING              API IN MODEL GWF              PACKAGE GWF             CONNECTED TO MODEL GWF              PACKAGE MAR              ON UNIT   1099 AT TIME STEP     69, STRESS PERIOD      2
 UBDSV06 SAVING              CHD IN MODEL GWF              PACKAGE GWF             CONNECTED TO MODEL GWF              PACKAGE CHD_0            ON UNIT   1099 AT TIME STEP     69, STRESS PERIOD      2

    CALCULATED INTERCELL FLOW FOR PERIOD 2 STEP 69
(1,1,1): (1,1,2) 4.862701E-02 (1,2,1) 4.827167E-02
(1,1,2): (1,1,1) -4.862701E-02 (1,1,3) 9.406151E-02 (1,2,2) 7.880590E-02
(1,1,3): (1,1,2) -9.406151E-02 (1,1,4) 0.122473 (1,2,3) 0.143747
(1,1,4): (1,1,3) -0.122473 (1,1,5) 0.109725 (1,2,4) 0.239963
(1,1,5): (1,1,4) -0.109725 (1,1,6) 4.434218E-02 (1,2,5) 0.337118
(1,1,6): (1,1,5) -4.434218E-02 (1,1,7) -4.038857E-02 (1,2,6) 0.374822
(1,1,7): (1,1,6) 4.038857E-02 (1,1,8) -0.102383 (1,2,7) 0.338779
(1,1,8): (1,1,7) 0.102383 (1,1,9) -0.107121 (1,2,8) 0.244902
(1,1,9): (1,1,8) 0.107121 (1,1,10) -6.460503E-02 (1,2,9) 0.156155
(1,1,10): (1,1,9) 6.460503E-02 (1,2,10) 0.107231
(1,2,1): (1,1,1) -4.827167E-02 (1,2,2) 7.916135E-02 (1,3,1) 8.468061E-02
(1,2,2): (1,1,2) -7.880590E-02 (1,2,1) -7.916135E-02 (1,2,3) 0.159012 (1,3,2) 0.145951
(1,2,3): (1,1,3) -0.143747 (1,2,2) -0.159012 (1,2,4) 0.218669 (1,3,3) 0.286293
(1,2,4): (1,1,4) -0.239963 (1,2,3) -0.218669 (1,2,5) 0.206756 (1,3,4) 0.518010
(1,2,5): (1,1,5) -0.337118 (1,2,4) -0.206756 (1,2,6) 8.193841E-02 (1,3,5) 0.780437
(1,2,6): (1,1,6) -0.374822 (1,2,5) -8.193841E-02 (1,2,7) -7.632684E-02 (1,3,6) 0.873426
(1,2,7): (1,1,7) -0.338779 (1,2,6) 7.632684E-02 (1,2,8) -0.196129 (1,3,7) 0.783210
(1,2,8): (1,1,8) -0.244902 (1,2,7) 0.196129 (1,2,9) -0.195825 (1,3,8) 0.526319
(1,2,9): (1,1,9) -0.156155 (1,2,8) 0.195825 (1,2,10) -0.113509 (1,3,9) 0.307640
(1,2,10): (1,1,10) -0.107231 (1,2,9) 0.113509 (1,3,10) 0.196842
(1,3,1): (1,2,1) -8.468061E-02 (1,3,2) 0.140429 (1,4,1) 7.860779E-02
(1,3,2): (1,2,2) -0.145951 (1,3,1) -0.140429 (1,3,3) 0.299372 (1,4,2) 0.155057
(1,3,3): (1,2,3) -0.286293 (1,3,2) -0.299372 (1,3,4) 0.450233 (1,4,3) 0.363645
(1,3,4): (1,2,4) -0.518010 (1,3,3) -0.450233 (1,3,5) 0.468397 (1,4,4) 0.800283
(1,3,5): (1,2,5) -0.780437 (1,3,4) -0.468397 (1,3,6) 0.174308 (1,4,5) 1.43717
(1,3,6): (1,2,6) -0.873426 (1,3,5) -0.174308 (1,3,7) -0.165935 (1,4,6) 1.60316
(1,3,7): (1,2,7) -0.783210 (1,3,6) 0.165935 (1,3,8) -0.452204 (1,4,7) 1.43951
(1,3,8): (1,2,8) -0.526319 (1,3,7) 0.452204 (1,3,9) -0.414265 (1,4,8) 0.807288
(1,3,9): (1,2,9) -0.307640 (1,3,8) 0.414265 (1,3,10) -0.224216 (1,4,9) 0.382419
(1,3,10): (1,2,10) -0.196842 (1,3,9) 0.224216 (1,4,10) 0.204197
(1,4,1): (1,3,1) -7.860779E-02 (1,4,2) 0.216924 (1,5,1) -1.783462E-02
(1,4,2): (1,3,2) -0.155057 (1,4,1) -0.216924 (1,4,3) 0.508254 (1,5,2) 8.683746E-03
(1,4,3): (1,3,3) -0.363645 (1,4,2) -0.508254 (1,4,4) 0.887234 (1,5,3) 0.177677
(1,4,4): (1,3,4) -0.800283 (1,4,3) -0.887234 (1,4,5) 1.10330 (1,5,4) 0.845345
(1,4,5): (1,3,5) -1.43717 (1,4,4) -1.10330 (1,4,6) 0.338385 (1,5,5) 2.53340
(1,4,6): (1,3,6) -1.60316 (1,4,5) -0.338385 (1,4,7) -0.327682 (1,5,6) 2.63358
(1,4,7): (1,3,7) -1.43951 (1,4,6) 0.327682 (1,4,8) -1.08232 (1,5,7) 2.53270
(1,4,8): (1,3,8) -0.807288 (1,4,7) 1.08232 (1,4,9) -0.839264 (1,5,8) 0.842807
(1,4,9): (1,3,9) -0.382419 (1,4,8) 0.839264 (1,4,10) -0.402472 (1,5,9) 0.171327
(1,4,10): (1,3,10) -0.204197 (1,4,9) 0.402472 (1,5,10) -1.086601E-04
(1,5,1): (1,4,1) 1.783462E-02 (1,5,2) 0.243501 (1,6,1) -0.217366
(1,5,2): (1,4,2) -8.683746E-03 (1,5,1) -0.243501 (1,5,3) 0.678073 (1,6,2) -0.386108
(1,5,3): (1,4,3) -0.177677 (1,5,2) -0.678073 (1,5,4) 1.55940 (1,6,3) -0.655364
(1,5,4): (1,4,4) -0.845345 (1,5,3) -1.55940 (1,5,5) 2.79529 (1,6,4) -0.292062
(1,5,5): (1,4,5) -2.53340 (1,5,4) -2.79529 (1,5,6) 0.436792 (1,6,5) 5.08099
(1,5,6): (1,4,6) -2.63358 (1,5,5) -0.436792 (1,5,7) -0.426762 (1,6,6) 3.73367
(1,5,7): (1,4,7) -2.53270 (1,5,6) 0.426762 (1,5,8) -2.77587 (1,6,7) 5.07523
(1,5,8): (1,4,8) -0.842807 (1,5,7) 2.77587 (1,5,9) -1.51500 (1,6,8) -0.310679
(1,5,9): (1,4,9) -0.171327 (1,5,8) 1.51500 (1,5,10) -0.574582 (1,6,9) -0.708828
(1,5,10): (1,4,10) 1.086601E-04 (1,5,9) 0.574582 (1,6,10) -0.524309
(1,6,1): (1,5,1) 0.217366 (1,6,2) 7.499603E-02 (1,7,1) -0.384273
(1,6,2): (1,5,2) 0.386108 (1,6,1) -7.499603E-02 (1,6,3) 0.408758 (1,7,2) -0.862779
(1,6,3): (1,5,3) 0.655364 (1,6,2) -0.408758 (1,6,4) 1.92719 (1,7,3) -2.37432
(1,6,4): (1,5,4) 0.292062 (1,6,3) -1.92719 (1,6,5) 8.31155 (1,7,4) -6.85259
(1,6,5): (1,5,5) -5.08099 (1,6,4) -8.31155 (1,6,6) -0.866232 (1,7,5) -21.3756
(1,6,6): (1,5,6) -3.73367 (1,6,5) 0.866232 (1,6,7) 0.870744 (1,7,6) -33.5564
(1,6,7): (1,5,7) -5.07523 (1,6,6) -0.870744 (1,6,8) -8.30521 (1,7,7) -21.3842
(1,6,8): (1,5,8) 0.310679 (1,6,7) 8.30521 (1,6,9) -1.91781 (1,7,8) -6.88082
(1,6,9): (1,5,9) 0.708828 (1,6,8) 1.91781 (1,6,10) -0.390300 (1,7,9) -2.46116
(1,6,10): (1,5,10) 0.524309 (1,6,9) 0.390300 (1,7,10) -1.11935
(1,7,1): (1,6,1) 0.384273 (1,7,2) -0.401375 (1,8,1) -0.214286
(1,7,2): (1,6,2) 0.862779 (1,7,1) 0.401375 (1,7,3) -1.08542 (1,8,2) -0.510538
(1,7,3): (1,6,3) 2.37432 (1,7,2) 1.08542 (1,7,4) -2.40285 (1,8,3) -1.52674
(1,7,4): (1,6,4) 6.85259 (1,7,3) 2.40285 (1,7,5) -4.96700 (1,8,4) -4.81168
(1,7,5): (1,6,5) 21.3756 (1,7,4) 4.96700 (1,7,6) -10.9412 (1,8,5) -15.7943
(1,7,6): (1,6,6) 33.5564 (1,7,5) 10.9412 (1,7,7) 10.9381 (1,8,6) -55.6682
(1,7,7): (1,6,7) 21.3842 (1,7,6) -10.9381 (1,7,8) 4.95297 (1,8,7) -15.7985
(1,7,8): (1,6,8) 6.88082 (1,7,7) -4.95297 (1,7,9) 2.35250 (1,8,8) -4.82651
(1,7,9): (1,6,9) 2.46116 (1,7,8) -2.35250 (1,7,10) 0.933005 (1,8,9) -1.57355
(1,7,10): (1,6,10) 1.11935 (1,7,9) -0.933005 (1,8,10) -0.654178
(1,8,1): (1,7,1) 0.214286 (1,8,2) -0.698188 (1,9,1) 0.192947
(1,8,2): (1,7,2) 0.510538 (1,8,1) 0.698188 (1,8,3) -2.10766 (1,9,2) 0.485057
(1,8,3): (1,7,3) 1.52674 (1,8,2) 2.10766 (1,8,4) -5.71875 (1,9,3) 1.49015
(1,8,4): (1,7,4) 4.81168 (1,8,3) 5.71875 (1,8,5) -15.9698 (1,9,4) 4.73747
(1,8,5): (1,7,5) 15.7943 (1,8,4) 15.9698 (1,8,6) -47.9487 (1,9,5) 15.5950
(1,8,6): (1,7,6) 55.6682 (1,8,5) 47.9487 (1,8,7) 47.9372 (1,9,6) 55.3385
(1,8,7): (1,7,7) 15.7985 (1,8,6) -47.9372 (1,8,8) 15.9414 (1,9,7) 15.5977
(1,8,8): (1,7,8) 4.82651 (1,8,7) -15.9414 (1,8,9) 5.63274 (1,9,8) 4.74910
(1,8,9): (1,7,9) 1.57355 (1,8,8) -5.63274 (1,8,10) 1.85504 (1,9,9) 1.53096
(1,8,10): (1,7,10) 0.654178 (1,8,9) -1.85504 (1,9,10) 0.618950
(1,9,1): (1,8,1) -0.192947 (1,9,2) -0.405450 (1,10,1) 0.368724
(1,9,2): (1,8,2) -0.485057 (1,9,1) 0.405450 (1,9,3) -1.09622 (1,10,2) 0.842874
(1,9,3): (1,8,3) -1.49015 (1,9,2) 1.09622 (1,9,4) -2.43827 (1,10,3) 2.33847
(1,9,4): (1,8,4) -4.73747 (1,9,3) 2.43827 (1,9,5) -5.06956 (1,10,4) 6.73485
(1,9,5): (1,8,5) -15.5950 (1,9,4) 5.06956 (1,9,6) -10.9515 (1,10,5) 20.7770
(1,9,6): (1,8,6) -55.3385 (1,9,5) 10.9515 (1,9,7) 10.9470 (1,10,6) 32.8253
(1,9,7): (1,8,7) -15.5977 (1,9,6) -10.9470 (1,9,8) 5.05358 (1,10,7) 20.7845
(1,9,8): (1,8,8) -4.74910 (1,9,7) -5.05358 (1,9,9) 2.38496 (1,10,8) 6.76076
(1,9,9): (1,8,9) -1.53096 (1,9,8) -2.38496 (1,9,10) 0.939997 (1,10,9) 2.42092
(1,9,10): (1,8,10) -0.618950 (1,9,9) -0.939997 (1,10,10) 1.09206
(1,10,1): (1,9,1) -0.368724 (1,10,2) 6.668442E-02 (1,11,1) 0.211338
(1,10,2): (1,9,2) -0.842874 (1,10,1) -6.668442E-02 (1,10,3) 0.382666 (1,11,2) 0.379444
(1,10,3): (1,9,3) -2.33847 (1,10,2) -0.382666 (1,10,4) 1.81491 (1,11,3) 0.655911
(1,10,4): (1,9,4) -6.73485 (1,10,3) -1.81491 (1,10,5) 7.77843 (1,11,4) 0.358810
(1,10,5): (1,9,5) -20.7770 (1,10,4) -7.77843 (1,10,6) -0.943977 (1,11,5) -4.60497
(1,10,6): (1,9,6) -32.8253 (1,10,5) 0.943977 (1,10,7) 0.946323 (1,11,6) -3.21192
(1,10,7): (1,9,7) -20.7845 (1,10,6) -0.946323 (1,10,8) -7.77539 (1,11,7) -4.59957
(1,10,8): (1,9,8) -6.76076 (1,10,7) 7.77539 (1,10,9) -1.81060 (1,11,8) 0.376535
(1,10,9): (1,9,9) -2.42092 (1,10,8) 1.81060 (1,10,10) -0.370981 (1,11,9) 0.707608
(1,10,10): (1,9,10) -1.09206 (1,10,9) 0.370981 (1,11,10) 0.514573
(1,11,1): (1,10,1) -0.211338 (1,11,2) 0.234551 (1,12,1) 2.064482E-02
(1,11,2): (1,10,2) -0.379444 (1,11,1) -0.234551 (1,11,3) 0.659142 (1,12,2) -5.680503E-03
(1,11,3): (1,10,3) -0.655911 (1,11,2) -0.659142 (1,11,4) 1.51445 (1,12,3) -0.170827
(1,11,4): (1,10,4) -0.358810 (1,11,3) -1.51445 (1,11,5) 2.68357 (1,12,4) -0.814159
(1,11,5): (1,10,5) 4.60497 (1,11,4) -2.68357 (1,11,6) 0.408720 (1,12,5) -2.41787
(1,11,6): (1,10,6) 3.21192 (1,11,5) -0.408720 (1,11,7) -0.401174 (1,12,6) -2.49872
(1,11,7): (1,10,7) 4.59957 (1,11,6) 0.401174 (1,11,8) -2.66788 (1,12,7) -2.41695
(1,11,8): (1,10,8) -0.376535 (1,11,7) 2.66788 (1,11,9) -1.47597 (1,12,8) -0.811152
(1,11,9): (1,10,9) -0.707608 (1,11,8) 1.47597 (1,11,10) -0.563749 (1,12,9) -0.163707
(1,11,10): (1,10,10) -0.514573 (1,11,9) 0.563749 (1,12,10) 4.070965E-03
(1,12,1): (1,11,1) -2.064482E-02 (1,12,2) 0.208170 (1,13,1) -7.042681E-02
(1,12,2): (1,11,2) 5.680503E-03 (1,12,1) -0.208170 (1,12,3) 0.493207 (1,13,2) -0.145790
(1,12,3): (1,11,3) 0.170827 (1,12,2) -0.493207 (1,12,4) 0.866852 (1,13,3) -0.352137
(1,12,4): (1,11,4) 0.814159 (1,12,3) -0.866852 (1,12,5) 1.07605 (1,13,4) -0.782644
(1,12,5): (1,11,5) 2.41787 (1,12,4) -1.07605 (1,12,6) 0.329220 (1,13,5) -1.40449
(1,12,6): (1,11,6) 2.49872 (1,12,5) -0.329220 (1,12,7) -0.320774 (1,13,6) -1.56602
(1,12,7): (1,11,7) 2.41695 (1,12,6) 0.320774 (1,12,8) -1.05849 (1,13,7) -1.40631
(1,12,8): (1,11,8) 0.811152 (1,12,7) 1.05849 (1,12,9) -0.824453 (1,13,8) -0.788414
(1,12,9): (1,11,9) 0.163707 (1,12,8) 0.824453 (1,12,10) -0.395316 (1,13,9) -0.368601
(1,12,10): (1,11,10) -4.070965E-03 (1,12,9) 0.395316 (1,13,10) -0.191309
(1,13,1): (1,12,1) 7.042681E-02 (1,13,2) 0.132760 (1,14,1) -7.592087E-02
(1,13,2): (1,12,2) 0.145790 (1,13,1) -0.132760 (1,13,3) 0.286576 (1,14,2) -0.135580
(1,13,3): (1,12,3) 0.352137 (1,13,2) -0.286576 (1,13,4) 0.435998 (1,14,3) -0.273403
(1,13,4): (1,12,4) 0.782644 (1,13,3) -0.435998 (1,13,5) 0.456113 (1,14,4) -0.502203
(1,13,5): (1,12,5) 1.40449 (1,13,4) -0.456113 (1,13,6) 0.169511 (1,14,5) -0.761235
(1,13,6): (1,12,6) 1.56602 (1,13,5) -0.169511 (1,13,7) -0.162876 (1,14,6) -0.853021
(1,13,7): (1,12,7) 1.40631 (1,13,6) 0.162876 (1,13,8) -0.442598 (1,14,7) -0.763494
(1,13,8): (1,12,8) 0.788414 (1,13,7) 0.442598 (1,13,9) -0.404495 (1,14,8) -0.509241
(1,13,9): (1,12,9) 0.368601 (1,13,8) 0.404495 (1,13,10) -0.217978 (1,14,9) -0.292281
(1,13,10): (1,12,10) 0.191309 (1,13,9) 0.217978 (1,14,10) -0.182383
(1,14,1): (1,13,1) 7.592087E-02 (1,14,2) 7.310287E-02 (1,15,1) -4.289045E-02
(1,14,2): (1,13,2) 0.135580 (1,14,1) -7.310287E-02 (1,14,3) 0.148735 (1,15,2) -7.227049E-02
(1,14,3): (1,13,3) 0.273403 (1,14,2) -0.148735 (1,14,4) 0.207345 (1,15,3) -0.135382
(1,14,4): (1,13,4) 0.502203 (1,14,3) -0.207345 (1,14,5) 0.197842 (1,15,4) -0.229736
(1,14,5): (1,13,5) 0.761235 (1,14,4) -0.197842 (1,14,6) 7.832406E-02 (1,15,5) -0.325436
(1,14,6): (1,13,6) 0.853021 (1,14,5) -7.832406E-02 (1,14,7) -7.393887E-02 (1,15,6) -0.362569
(1,14,7): (1,13,7) 0.763494 (1,14,6) 7.393887E-02 (1,14,8) -0.189130 (1,15,7) -0.326793
(1,14,8): (1,13,8) 0.509241 (1,14,7) 0.189130 (1,14,9) -0.187756 (1,15,8) -0.233911
(1,14,9): (1,13,9) 0.292281 (1,14,8) 0.187756 (1,14,10) -0.108161 (1,15,9) -0.146281
(1,14,10): (1,13,10) 0.182383 (1,14,9) 0.108161 (1,15,10) -9.812617E-02
(1,15,1): (1,14,1) 4.289045E-02 (1,15,2) 4.372259E-02
(1,15,2): (1,14,2) 7.227049E-02 (1,15,1) -4.372259E-02 (1,15,3) 8.561450E-02
(1,15,3): (1,14,3) 0.135382 (1,15,2) -8.561450E-02 (1,15,4) 0.113012
(1,15,4): (1,14,4) 0.229736 (1,15,3) -0.113012 (1,15,5) 0.102261
(1,15,5): (1,14,5) 0.325436 (1,15,4) -0.102261 (1,15,6) 4.129463E-02
(1,15,6): (1,14,6) 0.362569 (1,15,5) -4.129463E-02 (1,15,7) -3.826377E-02
(1,15,7): (1,14,7) 0.326793 (1,15,6) 3.826377E-02 (1,15,8) -9.637409E-02
(1,15,8): (1,14,8) 0.233911 (1,15,7) 9.637409E-02 (1,15,9) -0.100166
(1,15,9): (1,14,9) 0.146281 (1,15,8) 0.100166 (1,15,10) -6.002434E-02
(1,15,10): (1,14,10) 9.812617E-02 (1,15,9) 6.002434E-02

 WEL PACKAGE (WEL-1) FLOW RATES   PERIOD      2   STEP       69
 ----------------------------------------------------------------------------------------
   NUMBER   CELLID                    RATE       NAME                                    
 ----------------------------------------------------------------------------------------
     1      (1,8,6)              -206.97791      WEL                                     
 ----------------------------------------------------------------------------------------




 DRN PACKAGE (DRN-0) FLOW RATES   PERIOD      2   STEP       69
 ----------------------------------------------------------------------------------------
   NUMBER   CELLID                    RATE       NAME                                    
 ----------------------------------------------------------------------------------------
     1      (1,1,1)               0.0000000      SURF                                    
     2      (1,1,2)               0.0000000      SURF                                    
     3      (1,1,3)               0.0000000      SURF                                    
     4      (1,1,4)               0.0000000      SURF                                    
     5      (1,1,5)               0.0000000      SURF                                    
     6      (1,1,6)               0.0000000      SURF                                    
     7      (1,1,7)               0.0000000      SURF                                    
     8      (1,1,8)               0.0000000      SURF                                    
     9      (1,1,9)               0.0000000      SURF                                    
     10     (1,1,10)              0.0000000      SURF                                    
     11     (1,2,1)               0.0000000      SURF                                    
     12     (1,2,2)               0.0000000      SURF                                    
     13     (1,2,3)               0.0000000      SURF                                    
     14     (1,2,4)               0.0000000      SURF                                    
     15     (1,2,5)               0.0000000      SURF                                    
     16     (1,2,6)               0.0000000      SURF                                    
     17     (1,2,7)               0.0000000      SURF                                    
     18     (1,2,8)               0.0000000      SURF                                    
     19     (1,2,9)               0.0000000      SURF                                    
     20     (1,2,10)              0.0000000      SURF                                    
     21     (1,3,1)               0.0000000      SURF                                    
     22     (1,3,2)               0.0000000      SURF                                    
     23     (1,3,3)               0.0000000      SURF                                    
     24     (1,3,4)               0.0000000      SURF                                    
     25     (1,3,5)               0.0000000      SURF                                    
     26     (1,3,6)               0.0000000      SURF                                    
     27     (1,3,7)               0.0000000      SURF                                    
     28     (1,3,8)               0.0000000      SURF                                    
     29     (1,3,9)               0.0000000      SURF                                    
     30     (1,3,10)              0.0000000      SURF                                    
     31     (1,4,1)               0.0000000      SURF                                    
     32     (1,4,2)               0.0000000      SURF                                    
     33     (1,4,3)               0.0000000      SURF                                    
     34     (1,4,4)               0.0000000      SURF                                    
     35     (1,4,5)               0.0000000      SURF                                    
     36     (1,4,6)               0.0000000      SURF                                    
     37     (1,4,7)               0.0000000      SURF                                    
     38     (1,4,8)               0.0000000      SURF                                    
     39     (1,4,9)               0.0000000      SURF                                    
     40     (1,4,10)              0.0000000      SURF                                    
     41     (1,5,1)               0.0000000      SURF                                    
     42     (1,5,2)               0.0000000      SURF                                    
     43     (1,5,3)               0.0000000      SURF                                    
     44     (1,5,4)               0.0000000      SURF                                    
     45     (1,5,5)               0.0000000      SURF                                    
     46     (1,5,6)               0.0000000      SURF                                    
     47     (1,5,7)               0.0000000      SURF                                    
     48     (1,5,8)               0.0000000      SURF                                    
     49     (1,5,9)               0.0000000      SURF                                    
     50     (1,5,10)              0.0000000      SURF                                    
     51     (1,6,1)               0.0000000      SURF                                    
     52     (1,6,2)               0.0000000      SURF                                    
     53     (1,6,3)               0.0000000      SURF                                    
     54     (1,6,4)               0.0000000      SURF                                    
     55     (1,6,5)               0.0000000      SURF                                    
     56     (1,6,6)               0.0000000      SURF                                    
     57     (1,6,7)              -3.24100256E-07 SURF                                    
     58     (1,6,8)               0.0000000      SURF                                    
     59     (1,6,9)               0.0000000      SURF                                    
     60     (1,6,10)              0.0000000      SURF                                    
     61     (1,7,1)               0.0000000      SURF                                    
     62     (1,7,2)               0.0000000      SURF                                    
     63     (1,7,3)               0.0000000      SURF                                    
     64     (1,7,4)               0.0000000      SURF                                    
     65     (1,7,5)               0.0000000      SURF                                    
     66     (1,7,6)               0.0000000      SURF                                    
     67     (1,7,7)               0.0000000      SURF                                    
     68     (1,7,8)               0.0000000      SURF                                    
     69     (1,7,9)               0.0000000      SURF                                    
     70     (1,7,10)              0.0000000      SURF                                    
     71     (1,8,1)               0.0000000      SURF                                    
     72     (1,8,2)               0.0000000      SURF                                    
     73     (1,8,3)               0.0000000      SURF                                    
     74     (1,8,4)               0.0000000      SURF                                    
     75     (1,8,5)               0.0000000      SURF                                    
     76     (1,8,6)               0.0000000      SURF                                    
     77     (1,8,7)               0.0000000      SURF                                    
     78     (1,8,8)               0.0000000      SURF                                    
     79     (1,8,9)               0.0000000      SURF                                    
     80     (1,8,10)              0.0000000      SURF                                    
     81     (1,9,1)               0.0000000      SURF                                    
     82     (1,9,2)               0.0000000      SURF                                    
     83     (1,9,3)               0.0000000      SURF                                    
     84     (1,9,4)               0.0000000      SURF                                    
     85     (1,9,5)               0.0000000      SURF                                    
     86     (1,9,6)               0.0000000      SURF                                    
     87     (1,9,7)               0.0000000      SURF                                    
     88     (1,9,8)               0.0000000      SURF                                    
     89     (1,9,9)               0.0000000      SURF                                    
     90     (1,9,10)              0.0000000      SURF                                    
     91     (1,10,1)              0.0000000      SURF                                    
     92     (1,10,2)              0.0000000      SURF                                    
     93     (1,10,3)              0.0000000      SURF                                    
     94     (1,10,4)              0.0000000      SURF                                    
     95     (1,10,5)              0.0000000      SURF                                    
     96     (1,10,6)              0.0000000      SURF                                    
     97     (1,10,7)              0.0000000      SURF                                    
     98     (1,10,8)              0.0000000      SURF                                    
     99     (1,10,9)              0.0000000      SURF                                    
    100     (1,10,10)             0.0000000      SURF                                    
    101     (1,11,1)              0.0000000      SURF                                    
    102     (1,11,2)              0.0000000      SURF                                    
    103     (1,11,3)              0.0000000      SURF                                    
    104     (1,11,4)              0.0000000      SURF                                    
    105     (1,11,5)              0.0000000      SURF                                    
    106     (1,11,6)              0.0000000      SURF                                    
    107     (1,11,7)              0.0000000      SURF                                    
    108     (1,11,8)              0.0000000      SURF                                    
    109     (1,11,9)              0.0000000      SURF                                    
    110     (1,11,10)             0.0000000      SURF                                    
    111     (1,12,1)              0.0000000      SURF                                    
    112     (1,12,2)              0.0000000      SURF                                    
    113     (1,12,3)              0.0000000      SURF                                    
    114     (1,12,4)              0.0000000      SURF                                    
    115     (1,12,5)              0.0000000      SURF                                    
    116     (1,12,6)              0.0000000      SURF                                    
    117     (1,12,7)              0.0000000      SURF                                    
    118     (1,12,8)              0.0000000      SURF                                    
    119     (1,12,9)              0.0000000      SURF                                    
    120     (1,12,10)             0.0000000      SURF                                    
    121     (1,13,1)              0.0000000      SURF                                    
    122     (1,13,2)              0.0000000      SURF                                    
    123     (1,13,3)              0.0000000      SURF                                    
    124     (1,13,4)              0.0000000      SURF                                    
    125     (1,13,5)              0.0000000      SURF                                    
    126     (1,13,6)              0.0000000      SURF                                    
    127     (1,13,7)              0.0000000      SURF                                    
    128     (1,13,8)              0.0000000      SURF                                    
    129     (1,13,9)              0.0000000      SURF                                    
    130     (1,13,10)             0.0000000      SURF                                    
    131     (1,14,1)              0.0000000      SURF                                    
    132     (1,14,2)              0.0000000      SURF                                    
    133     (1,14,3)              0.0000000      SURF                                    
    134     (1,14,4)              0.0000000      SURF                                    
    135     (1,14,5)              0.0000000      SURF                                    
    136     (1,14,6)              0.0000000      SURF                                    
    137     (1,14,7)              0.0000000      SURF                                    
    138     (1,14,8)              0.0000000      SURF                                    
    139     (1,14,9)              0.0000000      SURF                                    
    140     (1,14,10)             0.0000000      SURF                                    
    141     (1,15,1)              0.0000000      SURF                                    
    142     (1,15,2)              0.0000000      SURF                                    
    143     (1,15,3)              0.0000000      SURF                                    
    144     (1,15,4)              0.0000000      SURF                                    
    145     (1,15,5)              0.0000000      SURF                                    
    146     (1,15,6)              0.0000000      SURF                                    
    147     (1,15,7)              0.0000000      SURF                                    
    148     (1,15,8)              0.0000000      SURF                                    
    149     (1,15,9)              0.0000000      SURF                                    
    150     (1,15,10)             0.0000000      SURF                                    
 ----------------------------------------------------------------------------------------




 API PACKAGE (MAR) FLOW RATES   PERIOD      2   STEP       69
 -----------------------------------------------
   NUMBER   CELLID                    RATE      
 -----------------------------------------------
     1      (1,6,5)               35.635379     
     2      (1,6,6)               35.635379     
     3      (1,6,7)               35.635379     
     4      (1,10,5)              33.357257     
     5      (1,10,6)              33.357257     
     6      (1,10,7)              33.357257     
 -----------------------------------------------



1
  HEAD IN LAYER   1 AT END OF TIME STEP  69 IN STRESS PERIOD    2
  ---------------------------------------------------------------------------

            1           2           3           4           5           6           7           8           9          10
 ........................................................................................................................
   1   1.0050E-02  1.4906E-02  2.4289E-02  3.6492E-02  4.7413E-02  5.1824E-02  4.7806E-02  3.7616E-02  2.6944E-02  2.0501E-02
   2   1.4870E-02  2.2769E-02  3.8609E-02  6.0344E-02  8.0854E-02  8.8976E-02  8.1410E-02  6.1956E-02  4.2494E-02  3.1191E-02
   3   2.3319E-02  3.7309E-02  6.7047E-02  0.1116      0.1577      0.1748      0.1585      0.1140      7.3035E-02  5.0776E-02
   4   3.1155E-02  5.2734E-02  0.1030      0.1901      0.2973      0.3300      0.2983      0.1932      0.1109      7.1052E-02
   5   2.9377E-02  5.3597E-02  0.1206      0.2724      0.5377      0.5790      0.5386      0.2752      0.1278      7.1041E-02
   6   7.7043E-03  1.5193E-02  5.5841E-02  0.2440      0.9996      0.9208       1.000      0.2450      5.7785E-02  1.8980E-02
   7  -3.0693E-02 -7.0954E-02 -0.1803     -0.4250     -0.9437      -2.152     -0.9440     -0.4266     -0.1869     -9.2743E-02
   8  -5.2188E-02 -0.1224     -0.3357     -0.9275      -2.688      -9.245      -2.689     -0.9308     -0.3473     -0.1588    
   9  -3.2830E-02 -7.3508E-02 -0.1839     -0.4323     -0.9622      -2.174     -0.9626     -0.4343     -0.1912     -9.6276E-02
  10   4.0278E-03  1.0689E-02  4.8770E-02  0.2262      0.9374      0.8511      0.9376      0.2268      4.9705E-02  1.2790E-02
  11   2.5109E-02  4.8451E-02  0.1136      0.2612      0.5164      0.5551      0.5171      0.2634      0.1196      6.3921E-02
  12   2.7168E-02  4.7885E-02  9.6733E-02  0.1819      0.2865      0.3184      0.2873      0.1844      0.1035      6.4325E-02
  13   2.0144E-02  3.3376E-02  6.1857E-02  0.1050      0.1499      0.1666      0.1506      0.1070      6.6970E-02  4.5317E-02
  14   1.2567E-02  1.9863E-02  3.4685E-02  5.5305E-02  7.4942E-02  8.2711E-02  7.5377E-02  5.6606E-02  3.7936E-02  2.7161E-02
  15   8.2834E-03  1.2650E-02  2.1194E-02  3.2458E-02  4.2641E-02  4.6751E-02  4.2943E-02  3.3346E-02  2.3363E-02  1.7375E-02

 HEAD WILL BE SAVED ON UNIT 1100 AT END OF TIME STEP   69, STRESS PERIOD    2


  VOLUME BUDGET FOR ENTIRE MODEL AT END OF TIME STEP   69, STRESS PERIOD   2
  ---------------------------------------------------------------------------------------------------

     CUMULATIVE VOLUME      L**3       RATES FOR THIS TIME STEP      L**3/T          PACKAGE NAME    
     ------------------                 ------------------------                     ----------------

           IN:                                      IN:
           ---                                      ---
              STO-SS =          23.7537                STO-SS =       9.7362E-03     STORAGE                          
              STO-SY =       58998.5674                STO-SY =          20.3534     STORAGE                          
                 WEL =           0.0000                   WEL =           0.0000     WEL-1                            
                 DRN =           0.0000                   DRN =           0.0000     DRN-0                            
                 API =      140965.0322                   API =         206.9779     MAR                              
                 CHD =       2.0279E-08                   CHD =           0.0000     CHD_0                            

            TOTAL IN =      199987.3534              TOTAL IN =         227.3410

          OUT:                                     OUT:
          ----                                     ----
              STO-SS =          20.1995                STO-SS =       1.0297E-02     STORAGE                          
              STO-SY =       39433.3152                STO-SY =          20.3528     STORAGE                          
                 WEL =      160533.8385                   WEL =         206.9779     WEL-1                            
                 DRN =       2.3151E-04                   DRN =       3.2410E-07     DRN-0                            
                 API =           0.0000                   API =           0.0000     MAR                              
                 CHD =       2.0705E-08                   CHD =           0.0000     CHD_0                            

           TOTAL OUT =      199987.3534             TOTAL OUT =         227.3410

            IN - OUT =      -1.1028E-06              IN - OUT =       8.2164E-10

 PERCENT DISCREPANCY =          -0.00     PERCENT DISCREPANCY =           0.00




         TIME SUMMARY AT END OF TIME STEP   69 IN STRESS PERIOD    2
                    SECONDS     MINUTES      HOURS       DAYS        YEARS
                    -----------------------------------------------------------
   TIME STEP LENGTH 8.64000E+05  14400.      240.00      10.000     2.73785E-02
 STRESS PERIOD TIME 5.96160E+07 9.93600E+05  16560.      690.00      1.8891    
         TOTAL TIME 5.97024E+07 9.95040E+05  16584.      691.00      1.8919    


end timestep


start timestep kper="2" kstp="70" mode="normal"

 UBDSV1 SAVING           STO-SS ON UNIT   1099 AT TIME STEP     70, STRESS PERIOD      2
 UBDSV1 SAVING           STO-SY ON UNIT   1099 AT TIME STEP     70, STRESS PERIOD      2
 UBDSV1 SAVING     FLOW-JA-FACE ON UNIT   1099 AT TIME STEP     70, STRESS PERIOD      2
 UBDSV06 SAVING       DATA-SPDIS IN MODEL GWF              PACKAGE NPF             CONNECTED TO MODEL GWF              PACKAGE NPF              ON UNIT   1099 AT TIME STEP     70, STRESS PERIOD      2
 UBDSV06 SAVING              WEL IN MODEL GWF              PACKAGE GWF             CONNECTED TO MODEL GWF              PACKAGE WEL-1            ON UNIT   1099 AT TIME STEP     70, STRESS PERIOD      2
 UBDSV06 SAVING              DRN IN MODEL GWF              PACKAGE GWF             CONNECTED TO MODEL GWF              PACKAGE DRN-0            ON UNIT   1099 AT TIME STEP     70, STRESS PERIOD      2
 UBDSV06 SAVING              API IN MODEL GWF              PACKAGE GWF             CONNECTED TO MODEL GWF              PACKAGE MAR              ON UNIT   1099 AT TIME STEP     70, STRESS PERIOD      2
 UBDSV06 SAVING              CHD IN MODEL GWF              PACKAGE GWF             CONNECTED TO MODEL GWF              PACKAGE CHD_0            ON UNIT   1099 AT TIME STEP     70, STRESS PERIOD      2

    CALCULATED INTERCELL FLOW FOR PERIOD 2 STEP 70
(1,1,1): (1,1,2) 4.999141E-02 (1,2,1) 4.917210E-02
(1,1,2): (1,1,1) -4.999141E-02 (1,1,3) 9.645440E-02 (1,2,2) 7.989865E-02
(1,1,3): (1,1,2) -9.645440E-02 (1,1,4) 0.125226 (1,2,3) 0.145189
(1,1,4): (1,1,3) -0.125226 (1,1,5) 0.111956 (1,2,4) 0.241843
(1,1,5): (1,1,4) -0.111956 (1,1,6) 4.526596E-02 (1,2,5) 0.339397
(1,1,6): (1,1,5) -4.526596E-02 (1,1,7) -4.104812E-02 (1,2,6) 0.377280
(1,1,7): (1,1,6) 4.104812E-02 (1,1,8) -0.104206 (1,2,7) 0.341112
(1,1,8): (1,1,7) 0.104206 (1,1,9) -0.109183 (1,2,8) 0.246914
(1,1,9): (1,1,8) 0.109183 (1,1,10) -6.593568E-02 (1,2,9) 0.157846
(1,1,10): (1,1,9) 6.593568E-02 (1,2,10) 0.108735
(1,2,1): (1,1,1) -4.917210E-02 (1,2,2) 8.071821E-02 (1,3,1) 8.555087E-02
(1,2,2): (1,1,2) -7.989865E-02 (1,2,1) -8.071821E-02 (1,2,3) 0.161755 (1,3,2) 0.146921
(1,2,3): (1,1,3) -0.145189 (1,2,2) -0.161755 (1,2,4) 0.221861 (1,3,3) 0.287502
(1,2,4): (1,1,4) -0.241843 (1,2,3) -0.221861 (1,2,5) 0.209386 (1,3,4) 0.519652
(1,2,5): (1,1,5) -0.339397 (1,2,4) -0.209386 (1,2,6) 8.304017E-02 (1,3,5) 0.782619
(1,2,6): (1,1,6) -0.377280 (1,2,5) -8.304017E-02 (1,2,7) -7.710976E-02 (1,3,6) 0.875883
(1,2,7): (1,1,7) -0.341112 (1,2,6) 7.710976E-02 (1,2,8) -0.198273 (1,3,7) 0.785457
(1,2,8): (1,1,8) -0.246914 (1,2,7) 0.198273 (1,2,9) -0.198207 (1,3,8) 0.528104
(1,2,9): (1,1,9) -0.157846 (1,2,8) 0.198207 (1,2,10) -0.115027 (1,3,9) 0.309088
(1,2,10): (1,1,10) -0.108735 (1,2,9) 0.115027 (1,3,10) 0.198154
(1,3,1): (1,2,1) -8.555087E-02 (1,3,2) 0.142086 (1,4,1) 7.782104E-02
(1,3,2): (1,2,2) -0.146921 (1,3,1) -0.142086 (1,3,3) 0.302357 (1,4,2) 0.153809
(1,3,3): (1,2,3) -0.287502 (1,3,2) -0.302357 (1,3,4) 0.453863 (1,4,3) 0.361805
(1,3,4): (1,2,4) -0.519652 (1,3,3) -0.453863 (1,3,5) 0.471567 (1,4,4) 0.798286
(1,3,5): (1,2,5) -0.782619 (1,3,4) -0.471567 (1,3,6) 0.175682 (1,4,5) 1.43567
(1,3,6): (1,2,6) -0.875883 (1,3,5) -0.175682 (1,3,7) -0.166925 (1,4,6) 1.60201
(1,3,7): (1,2,7) -0.785457 (1,3,6) 0.166925 (1,3,8) -0.454809 (1,4,7) 1.43800
(1,3,8): (1,2,8) -0.528104 (1,3,7) 0.454809 (1,3,9) -0.416987 (1,4,8) 0.805231
(1,3,9): (1,2,9) -0.309088 (1,3,8) 0.416987 (1,3,10) -0.225870 (1,4,9) 0.380358
(1,3,10): (1,2,10) -0.198154 (1,3,9) 0.225870 (1,4,10) 0.202395
(1,4,1): (1,3,1) -7.782104E-02 (1,4,2) 0.218122 (1,5,1) -2.173089E-02
(1,4,2): (1,3,2) -0.153809 (1,4,1) -0.218122 (1,4,3) 0.510655 (1,5,2) 3.387073E-03
(1,4,3): (1,3,3) -0.361805 (1,4,2) -0.510655 (1,4,4) 0.890730 (1,5,3) 0.170434
(1,4,4): (1,3,4) -0.798286 (1,4,3) -0.890730 (1,4,5) 1.10700 (1,5,4) 0.837175
(1,4,5): (1,3,5) -1.43567 (1,4,4) -1.10700 (1,4,6) 0.340113 (1,5,5) 2.52625
(1,4,6): (1,3,6) -1.60201 (1,4,5) -0.340113 (1,4,7) -0.329036 (1,5,6) 2.62720
(1,4,7): (1,3,7) -1.43800 (1,4,6) 0.329036 (1,4,8) -1.08550 (1,5,7) 2.52540
(1,4,8): (1,3,8) -0.805231 (1,4,7) 1.08550 (1,4,9) -0.842008 (1,5,8) 0.834184
(1,4,9): (1,3,9) -0.380358 (1,4,8) 0.842008 (1,4,10) -0.403874 (1,5,9) 0.163011
(1,4,10): (1,3,10) -0.202395 (1,4,9) 0.403874 (1,5,10) -7.567434E-03
(1,5,1): (1,4,1) 2.173089E-02 (1,5,2) 0.243295 (1,6,1) -0.224153
(1,5,2): (1,4,2) -3.387073E-03 (1,5,1) -0.243295 (1,5,3) 0.678530 (1,6,2) -0.395160
(1,5,3): (1,4,3) -0.170434 (1,5,2) -0.678530 (1,5,4) 1.56203 (1,6,3) -0.667649
(1,5,4): (1,4,4) -0.837175 (1,5,3) -1.56203 (1,5,5) 2.80019 (1,6,4) -0.305732
(1,5,5): (1,4,5) -2.52625 (1,5,4) -2.80019 (1,5,6) 0.439287 (1,6,5) 5.07096
(1,5,6): (1,4,6) -2.62720 (1,5,5) -0.439287 (1,5,7) -0.429035 (1,6,6) 3.72562
(1,5,7): (1,4,7) -2.52540 (1,5,6) 0.429035 (1,5,8) -2.78055 (1,6,7) 5.06489
(1,5,8): (1,4,8) -0.834184 (1,5,7) 2.78055 (1,5,9) -1.51751 (1,6,8) -0.325157
(1,5,9): (1,4,9) -0.163011 (1,5,8) 1.51751 (1,5,10) -0.575138 (1,6,9) -0.722960
(1,5,10): (1,4,10) 7.567434E-03 (1,5,9) 0.575138 (1,6,10) -0.536977
(1,6,1): (1,5,1) 0.224153 (1,6,2) 7.254390E-02 (1,7,1) -0.391142
(1,6,2): (1,5,2) 0.395160 (1,6,1) -7.254390E-02 (1,6,3) 0.406012 (1,7,2) -0.871962
(1,6,3): (1,5,3) 0.667649 (1,6,2) -0.406012 (1,6,4) 1.92838 (1,7,3) -2.38720
(1,6,4): (1,5,4) 0.305732 (1,6,3) -1.92838 (1,6,5) 8.32101 (1,7,4) -6.86911
(1,6,5): (1,5,5) -5.07096 (1,6,4) -8.32101 (1,6,6) -0.861902 (1,7,5) -21.3963
(1,6,6): (1,5,6) -3.72562 (1,6,5) 0.861902 (1,6,7) 0.866344 (1,7,6) -33.5740
(1,6,7): (1,5,7) -5.06489 (1,6,6) -0.866344 (1,6,8) -8.31499 (1,7,7) -21.4052
(1,6,8): (1,5,8) 0.325157 (1,6,7) 8.31499 (1,6,9) -1.91992 (1,7,8) -6.89815
(1,6,9): (1,5,9) 0.722960 (1,6,8) 1.91992 (1,6,10) -0.389418 (1,7,9) -2.47588
(1,6,10): (1,5,10) 0.536977 (1,6,9) 0.389418 (1,7,10) -1.13212
(1,7,1): (1,6,1) 0.391142 (1,7,2) -0.406106 (1,8,1) -0.217184
(1,7,2): (1,6,2) 0.871962 (1,7,1) 0.406106 (1,7,3) -1.09169 (1,8,2) -0.514441
(1,7,3): (1,6,3) 2.38720 (1,7,2) 1.09169 (1,7,4) -2.40457 (1,8,3) -1.53235
(1,7,4): (1,6,4) 6.86911 (1,7,3) 2.40457 (1,7,5) -4.95954 (1,8,4) -4.81878
(1,7,5): (1,6,5) 21.3963 (1,7,4) 4.95954 (1,7,6) -10.9319 (1,8,5) -15.7998
(1,7,6): (1,6,6) 33.5740 (1,7,5) 10.9319 (1,7,7) 10.9285 (1,8,6) -55.6550
(1,7,7): (1,6,7) 21.4052 (1,7,6) -10.9285 (1,7,8) 4.94465 (1,8,7) -15.8041
(1,7,8): (1,6,8) 6.89815 (1,7,7) -4.94465 (1,7,9) 2.35224 (1,8,8) -4.83393
(1,7,9): (1,6,9) 2.47588 (1,7,8) -2.35224 (1,7,10) 0.935636 (1,8,9) -1.57991
(1,7,10): (1,6,10) 1.13212 (1,7,9) -0.935636 (1,8,10) -0.659554
(1,8,1): (1,7,1) 0.217184 (1,8,2) -0.703932 (1,9,1) 0.195919
(1,8,2): (1,7,2) 0.514441 (1,8,1) 0.703932 (1,8,3) -2.11566 (1,9,2) 0.488849
(1,8,3): (1,7,3) 1.53235 (1,8,2) 2.11566 (1,8,4) -5.72187 (1,9,3) 1.49441
(1,8,4): (1,7,4) 4.81878 (1,8,3) 5.72187 (1,8,5) -15.9588 (1,9,4) 4.73871
(1,8,5): (1,7,5) 15.7998 (1,8,4) 15.9588 (1,8,6) -47.9122 (1,9,5) 15.5836
(1,8,6): (1,7,6) 55.6550 (1,8,5) 47.9122 (1,8,7) 47.9000 (1,9,6) 55.2964
(1,8,7): (1,7,7) 15.8041 (1,8,6) -47.9000 (1,8,8) 15.9292 (1,9,7) 15.5865
(1,8,8): (1,7,8) 4.83393 (1,8,7) -15.9292 (1,8,9) 5.63335 (1,9,8) 4.75066
(1,8,9): (1,7,9) 1.57991 (1,8,8) -5.63335 (1,8,10) 1.85863 (1,9,9) 1.53601
(1,8,10): (1,7,10) 0.659554 (1,8,9) -1.85863 (1,9,10) 0.624309
(1,9,1): (1,8,1) -0.195919 (1,9,2) -0.410365 (1,10,1) 0.375561
(1,9,2): (1,8,2) -0.488849 (1,9,1) 0.410365 (1,9,3) -1.10372 (1,10,2) 0.851857
(1,9,3): (1,8,3) -1.49441 (1,9,2) 1.10372 (1,9,4) -2.44435 (1,10,3) 2.34991
(1,9,4): (1,8,4) -4.73871 (1,9,3) 2.44435 (1,9,5) -5.07115 (1,10,4) 6.74412
(1,9,5): (1,8,5) -15.5836 (1,9,4) 5.07115 (1,9,6) -10.9438 (1,10,5) 20.7671
(1,9,6): (1,8,6) -55.2964 (1,9,5) 10.9438 (1,9,7) 10.9389 (1,10,6) 32.8039
(1,9,7): (1,8,7) -15.5865 (1,9,6) -10.9389 (1,9,8) 5.05433 (1,10,7) 20.7749
(1,9,8): (1,8,8) -4.75066 (1,9,7) -5.05433 (1,9,9) 2.38910 (1,10,8) 6.77083
(1,9,9): (1,8,9) -1.53601 (1,9,8) -2.38910 (1,9,10) 0.943906 (1,10,9) 2.43421
(1,9,10): (1,8,10) -0.624309 (1,9,9) -0.943906 (1,10,10) 1.10466
(1,10,1): (1,9,1) -0.375561 (1,10,2) 6.388293E-02 (1,11,1) 0.218066
(1,10,2): (1,9,2) -0.851857 (1,10,1) -6.388293E-02 (1,10,3) 0.377502 (1,11,2) 0.388724
(1,10,3): (1,9,3) -2.34991 (1,10,2) -0.377502 (1,10,4) 1.80628 (1,11,3) 0.669729
(1,10,4): (1,9,4) -6.74412 (1,10,3) -1.80628 (1,10,5) 7.75784 (1,11,4) 0.379255
(1,10,5): (1,9,5) -20.7671 (1,10,4) -7.75784 (1,10,6) -0.946078 (1,11,5) -4.56841
(1,10,6): (1,9,6) -32.8039 (1,10,5) 0.946078 (1,10,7) 0.948334 (1,11,6) -3.17425
(1,10,7): (1,9,7) -20.7749 (1,10,6) -0.948334 (1,10,8) -7.75511 (1,11,7) -4.56273
(1,10,8): (1,9,8) -6.77083 (1,10,7) 7.75511 (1,10,9) -1.80282 (1,11,8) 0.397763
(1,10,9): (1,9,9) -2.43421 (1,10,8) 1.80282 (1,10,10) -0.367606 (1,11,9) 0.723245
(1,10,10): (1,9,10) -1.10466 (1,10,9) 0.367606 (1,11,10) 0.527493
(1,11,1): (1,10,1) -0.218066 (1,11,2) 0.234280 (1,12,1) 2.438912E-02
(1,11,2): (1,10,2) -0.388724 (1,11,1) -0.234280 (1,11,3) 0.658476 (1,12,2) -3.340745E-04
(1,11,3): (1,10,3) -0.669729 (1,11,2) -0.658476 (1,11,4) 1.51257 (1,12,3) -0.162529
(1,11,4): (1,10,4) -0.379255 (1,11,3) -1.51257 (1,11,5) 2.67887 (1,12,4) -0.801599
(1,11,5): (1,10,5) 4.56841 (1,11,4) -2.67887 (1,11,6) 0.408103 (1,12,5) -2.39917
(1,11,6): (1,10,6) 3.17425 (1,11,5) -0.408103 (1,11,7) -0.400370 (1,12,6) -2.47858
(1,11,7): (1,10,7) 4.56273 (1,11,6) 0.400370 (1,11,8) -2.66297 (1,12,7) -2.39810
(1,11,8): (1,10,8) -0.397763 (1,11,7) 2.66297 (1,11,9) -1.47391 (1,12,8) -0.798168
(1,11,9): (1,10,9) -0.723245 (1,11,8) 1.47391 (1,11,10) -0.563057 (1,12,9) -0.154393
(1,11,10): (1,10,10) -0.527493 (1,11,9) 0.563057 (1,12,10) 1.151994E-02
(1,12,1): (1,11,1) -2.438912E-02 (1,12,2) 0.209506 (1,13,1) -6.982076E-02
(1,12,2): (1,11,2) 3.340745E-04 (1,12,1) -0.209506 (1,12,3) 0.495495 (1,13,2) -0.144719
(1,12,3): (1,11,3) 0.162529 (1,12,2) -0.495495 (1,12,4) 0.869201 (1,13,3) -0.350194
(1,12,4): (1,11,4) 0.801599 (1,12,3) -0.869201 (1,12,5) 1.07731 (1,13,4) -0.779446
(1,12,5): (1,11,5) 2.39917 (1,12,4) -1.07731 (1,12,6) 0.330004 (1,13,5) -1.39971
(1,12,6): (1,11,6) 2.47858 (1,12,5) -0.330004 (1,12,7) -0.321227 (1,13,6) -1.56082
(1,12,7): (1,11,7) 2.39810 (1,12,6) 0.321227 (1,12,8) -1.05925 (1,13,7) -1.40152
(1,12,8): (1,11,8) 0.798168 (1,12,7) 1.05925 (1,12,9) -0.826018 (1,13,8) -0.785174
(1,12,9): (1,11,9) 0.154393 (1,12,8) 0.826018 (1,12,10) -0.396483 (1,13,9) -0.366495
(1,12,10): (1,11,10) -1.151994E-02 (1,12,9) 0.396483 (1,13,10) -0.189800
(1,13,1): (1,12,1) 6.982076E-02 (1,13,2) 0.134560 (1,14,1) -7.691065E-02
(1,13,2): (1,12,2) 0.144719 (1,13,1) -0.134560 (1,13,3) 0.289728 (1,14,2) -0.136744
(1,13,3): (1,12,3) 0.350194 (1,13,2) -0.289728 (1,13,4) 0.439579 (1,14,3) -0.274856
(1,13,4): (1,12,4) 0.779446 (1,13,3) -0.439579 (1,13,5) 0.458909 (1,14,4) -0.503937
(1,13,5): (1,12,5) 1.39971 (1,13,4) -0.458909 (1,13,6) 0.170709 (1,14,5) -0.763106
(1,13,6): (1,12,6) 1.56082 (1,13,5) -0.170709 (1,13,7) -0.163740 (1,14,6) -0.854995
(1,13,7): (1,12,7) 1.40152 (1,13,6) 0.163740 (1,13,8) -0.444869 (1,14,7) -0.765427
(1,13,8): (1,12,8) 0.785174 (1,13,7) 0.444869 (1,13,9) -0.407175 (1,14,8) -0.511123
(1,13,9): (1,12,9) 0.366495 (1,13,8) 0.407175 (1,13,10) -0.219736 (1,14,9) -0.294009
(1,13,10): (1,12,10) 0.189800 (1,13,9) 0.219736 (1,14,10) -0.183988
(1,14,1): (1,13,1) 7.691065E-02 (1,14,2) 7.472778E-02 (1,15,1) -4.383677E-02
(1,14,2): (1,13,2) 0.136744 (1,14,1) -7.472778E-02 (1,14,3) 0.151596 (1,15,2) -7.346431E-02
(1,14,3): (1,13,3) 0.274856 (1,14,2) -0.151596 (1,14,4) 0.210642 (1,15,3) -0.137006
(1,14,4): (1,13,4) 0.503937 (1,14,3) -0.210642 (1,14,5) 0.200499 (1,15,4) -0.231846
(1,14,5): (1,13,5) 0.763106 (1,14,4) -0.200499 (1,14,6) 7.941995E-02 (1,15,5) -0.327928
(1,14,6): (1,13,6) 0.854995 (1,14,5) -7.941995E-02 (1,14,7) -7.476171E-02 (1,15,6) -0.365227
(1,14,7): (1,13,7) 0.765427 (1,14,6) 7.476171E-02 (1,14,8) -0.191349 (1,15,7) -0.329336
(1,14,8): (1,13,8) 0.511123 (1,14,7) 0.191349 (1,14,9) -0.190281 (1,15,8) -0.236152
(1,14,9): (1,13,9) 0.294009 (1,14,8) 0.190281 (1,14,10) -0.109795 (1,15,9) -0.148166
(1,14,10): (1,13,10) 0.183988 (1,14,9) 0.109795 (1,15,10) -9.977931E-02
(1,15,1): (1,14,1) 4.383677E-02 (1,15,2) 4.509986E-02
(1,15,2): (1,14,2) 7.346431E-02 (1,15,1) -4.509986E-02 (1,15,3) 8.804438E-02
(1,15,3): (1,14,3) 0.137006 (1,15,2) -8.804438E-02 (1,15,4) 0.115822
(1,15,4): (1,14,4) 0.231846 (1,15,3) -0.115822 (1,15,5) 0.104536
(1,15,5): (1,14,5) 0.327928 (1,15,4) -0.104536 (1,15,6) 4.222506E-02
(1,15,6): (1,14,6) 0.365227 (1,15,5) -4.222506E-02 (1,15,7) -3.897271E-02
(1,15,7): (1,14,7) 0.329336 (1,15,6) 3.897271E-02 (1,15,8) -9.829009E-02
(1,15,8): (1,14,8) 0.236152 (1,15,7) 9.829009E-02 (1,15,9) -0.102335
(1,15,9): (1,14,9) 0.148166 (1,15,8) 0.102335 (1,15,10) -6.142616E-02
(1,15,10): (1,14,10) 9.977931E-02 (1,15,9) 6.142616E-02

 WEL PACKAGE (WEL-1) FLOW RATES   PERIOD      2   STEP       70
 ----------------------------------------------------------------------------------------
   NUMBER   CELLID                    RATE       NAME                                    
 ----------------------------------------------------------------------------------------
     1      (1,8,6)              -206.84646      WEL                                     
 ----------------------------------------------------------------------------------------




 DRN PACKAGE (DRN-0) FLOW RATES   PERIOD      2   STEP       70
 ----------------------------------------------------------------------------------------
   NUMBER   CELLID                    RATE       NAME                                    
 ----------------------------------------------------------------------------------------
     1      (1,1,1)               0.0000000      SURF                                    
     2      (1,1,2)               0.0000000      SURF                                    
     3      (1,1,3)               0.0000000      SURF                                    
     4      (1,1,4)               0.0000000      SURF                                    
     5      (1,1,5)               0.0000000      SURF                                    
     6      (1,1,6)               0.0000000      SURF                                    
     7      (1,1,7)               0.0000000      SURF                                    
     8      (1,1,8)               0.0000000      SURF                                    
     9      (1,1,9)               0.0000000      SURF                                    
     10     (1,1,10)              0.0000000      SURF                                    
     11     (1,2,1)               0.0000000      SURF                                    
     12     (1,2,2)               0.0000000      SURF                                    
     13     (1,2,3)               0.0000000      SURF                                    
     14     (1,2,4)               0.0000000      SURF                                    
     15     (1,2,5)               0.0000000      SURF                                    
     16     (1,2,6)               0.0000000      SURF                                    
     17     (1,2,7)               0.0000000      SURF                                    
     18     (1,2,8)               0.0000000      SURF                                    
     19     (1,2,9)               0.0000000      SURF                                    
     20     (1,2,10)              0.0000000      SURF                                    
     21     (1,3,1)               0.0000000      SURF                                    
     22     (1,3,2)               0.0000000      SURF                                    
     23     (1,3,3)               0.0000000      SURF                                    
     24     (1,3,4)               0.0000000      SURF                                    
     25     (1,3,5)               0.0000000      SURF                                    
     26     (1,3,6)               0.0000000      SURF                                    
     27     (1,3,7)               0.0000000      SURF                                    
     28     (1,3,8)               0.0000000      SURF                                    
     29     (1,3,9)               0.0000000      SURF                                    
     30     (1,3,10)              0.0000000      SURF                                    
     31     (1,4,1)               0.0000000      SURF                                    
     32     (1,4,2)               0.0000000      SURF                                    
     33     (1,4,3)               0.0000000      SURF                                    
     34     (1,4,4)               0.0000000      SURF                                    
     35     (1,4,5)               0.0000000      SURF                                    
     36     (1,4,6)               0.0000000      SURF                                    
     37     (1,4,7)               0.0000000      SURF                                    
     38     (1,4,8)               0.0000000      SURF                                    
     39     (1,4,9)               0.0000000      SURF                                    
     40     (1,4,10)              0.0000000      SURF                                    
     41     (1,5,1)               0.0000000      SURF                                    
     42     (1,5,2)               0.0000000      SURF                                    
     43     (1,5,3)               0.0000000      SURF                                    
     44     (1,5,4)               0.0000000      SURF                                    
     45     (1,5,5)               0.0000000      SURF                                    
     46     (1,5,6)               0.0000000      SURF                                    
     47     (1,5,7)               0.0000000      SURF                                    
     48     (1,5,8)               0.0000000      SURF                                    
     49     (1,5,9)               0.0000000      SURF                                    
     50     (1,5,10)              0.0000000      SURF                                    
     51     (1,6,1)               0.0000000      SURF                                    
     52     (1,6,2)               0.0000000      SURF                                    
     53     (1,6,3)               0.0000000      SURF                                    
     54     (1,6,4)               0.0000000      SURF                                    
     55     (1,6,5)               0.0000000      SURF                                    
     56     (1,6,6)               0.0000000      SURF                                    
     57     (1,6,7)              -3.23096174E-07 SURF                                    
     58     (1,6,8)               0.0000000      SURF                                    
     59     (1,6,9)               0.0000000      SURF                                    
     60     (1,6,10)              0.0000000      SURF                                    
     61     (1,7,1)               0.0000000      SURF                                    
     62     (1,7,2)               0.0000000      SURF                                    
     63     (1,7,3)               0.0000000      SURF                                    
     64     (1,7,4)               0.0000000      SURF                                    
     65     (1,7,5)               0.0000000      SURF                                    
     66     (1,7,6)               0.0000000      SURF                                    
     67     (1,7,7)               0.0000000      SURF                                    
     68     (1,7,8)               0.0000000      SURF                                    
     69     (1,7,9)               0.0000000      SURF                                    
     70     (1,7,10)              0.0000000      SURF                                    
     71     (1,8,1)               0.0000000      SURF                                    
     72     (1,8,2)               0.0000000      SURF                                    
     73     (1,8,3)               0.0000000      SURF                                    
     74     (1,8,4)               0.0000000      SURF                                    
     75     (1,8,5)               0.0000000      SURF                                    
     76     (1,8,6)               0.0000000      SURF                                    
     77     (1,8,7)               0.0000000      SURF                                    
     78     (1,8,8)               0.0000000      SURF                                    
     79     (1,8,9)               0.0000000      SURF                                    
     80     (1,8,10)              0.0000000      SURF                                    
     81     (1,9,1)               0.0000000      SURF                                    
     82     (1,9,2)               0.0000000      SURF                                    
     83     (1,9,3)               0.0000000      SURF                                    
     84     (1,9,4)               0.0000000      SURF                                    
     85     (1,9,5)               0.0000000      SURF                                    
     86     (1,9,6)               0.0000000      SURF                                    
     87     (1,9,7)               0.0000000      SURF                                    
     88     (1,9,8)               0.0000000      SURF                                    
     89     (1,9,9)               0.0000000      SURF                                    
     90     (1,9,10)              0.0000000      SURF                                    
     91     (1,10,1)              0.0000000      SURF                                    
     92     (1,10,2)              0.0000000      SURF                                    
     93     (1,10,3)              0.0000000      SURF                                    
     94     (1,10,4)              0.0000000      SURF                                    
     95     (1,10,5)              0.0000000      SURF                                    
     96     (1,10,6)              0.0000000      SURF                                    
     97     (1,10,7)              0.0000000      SURF                                    
     98     (1,10,8)              0.0000000      SURF                                    
     99     (1,10,9)              0.0000000      SURF                                    
    100     (1,10,10)             0.0000000      SURF                                    
    101     (1,11,1)              0.0000000      SURF                                    
    102     (1,11,2)              0.0000000      SURF                                    
    103     (1,11,3)              0.0000000      SURF                                    
    104     (1,11,4)              0.0000000      SURF                                    
    105     (1,11,5)              0.0000000      SURF                                    
    106     (1,11,6)              0.0000000      SURF                                    
    107     (1,11,7)              0.0000000      SURF                                    
    108     (1,11,8)              0.0000000      SURF                                    
    109     (1,11,9)              0.0000000      SURF                                    
    110     (1,11,10)             0.0000000      SURF                                    
    111     (1,12,1)              0.0000000      SURF                                    
    112     (1,12,2)              0.0000000      SURF                                    
    113     (1,12,3)              0.0000000      SURF                                    
    114     (1,12,4)              0.0000000      SURF                                    
    115     (1,12,5)              0.0000000      SURF                                    
    116     (1,12,6)              0.0000000      SURF                                    
    117     (1,12,7)              0.0000000      SURF                                    
    118     (1,12,8)              0.0000000      SURF                                    
    119     (1,12,9)              0.0000000      SURF                                    
    120     (1,12,10)             0.0000000      SURF                                    
    121     (1,13,1)              0.0000000      SURF                                    
    122     (1,13,2)              0.0000000      SURF                                    
    123     (1,13,3)              0.0000000      SURF                                    
    124     (1,13,4)              0.0000000      SURF                                    
    125     (1,13,5)              0.0000000      SURF                                    
    126     (1,13,6)              0.0000000      SURF                                    
    127     (1,13,7)              0.0000000      SURF                                    
    128     (1,13,8)              0.0000000      SURF                                    
    129     (1,13,9)              0.0000000      SURF                                    
    130     (1,13,10)             0.0000000      SURF                                    
    131     (1,14,1)              0.0000000      SURF                                    
    132     (1,14,2)              0.0000000      SURF                                    
    133     (1,14,3)              0.0000000      SURF                                    
    134     (1,14,4)              0.0000000      SURF                                    
    135     (1,14,5)              0.0000000      SURF                                    
    136     (1,14,6)              0.0000000      SURF                                    
    137     (1,14,7)              0.0000000      SURF                                    
    138     (1,14,8)              0.0000000      SURF                                    
    139     (1,14,9)              0.0000000      SURF                                    
    140     (1,14,10)             0.0000000      SURF                                    
    141     (1,15,1)              0.0000000      SURF                                    
    142     (1,15,2)              0.0000000      SURF                                    
    143     (1,15,3)              0.0000000      SURF                                    
    144     (1,15,4)              0.0000000      SURF                                    
    145     (1,15,5)              0.0000000      SURF                                    
    146     (1,15,6)              0.0000000      SURF                                    
    147     (1,15,7)              0.0000000      SURF                                    
    148     (1,15,8)              0.0000000      SURF                                    
    149     (1,15,9)              0.0000000      SURF                                    
    150     (1,15,10)             0.0000000      SURF                                    
 ----------------------------------------------------------------------------------------




 API PACKAGE (MAR) FLOW RATES   PERIOD      2   STEP       70
 -----------------------------------------------
   NUMBER   CELLID                    RATE      
 -----------------------------------------------
     1      (1,6,5)               35.651466     
     2      (1,6,6)               35.651466     
     3      (1,6,7)               35.651466     
     4      (1,10,5)              33.297354     
     5      (1,10,6)              33.297354     
     6      (1,10,7)              33.297354     
 -----------------------------------------------



1
  HEAD IN LAYER   1 AT END OF TIME STEP  70 IN STRESS PERIOD    2
  ---------------------------------------------------------------------------

            1           2           3           4           5           6           7           8           9          10
 ........................................................................................................................
   1   1.0546E-02  1.5537E-02  2.5159E-02  3.7634E-02  4.8776E-02  5.3278E-02  4.9195E-02  3.8825E-02  2.7949E-02  2.1374E-02
   2   1.5456E-02  2.3508E-02  3.9620E-02  6.1670E-02  8.2438E-02  9.0667E-02  8.3025E-02  6.3361E-02  4.3665E-02  3.2213E-02
   3   2.3990E-02  3.8145E-02  6.8176E-02  0.1131      0.1595      0.1767      0.1603      0.1156      7.4346E-02  5.1926E-02
   4   3.1748E-02  5.3444E-02  0.1040      0.1914      0.2989      0.3318      0.2999      0.1946      0.1120      7.2021E-02
   5   2.9581E-02  5.3781E-02  0.1208      0.2729      0.5386      0.5801      0.5396      0.2757      0.1281      7.1269E-02
   6   7.2323E-03  1.4476E-02  5.4856E-02  0.2431      0.9996      0.9212       1.000      0.2441      5.6674E-02  1.7952E-02
   7  -3.1854E-02 -7.2594E-02 -0.1826     -0.4275     -0.9456      -2.153     -0.9459     -0.4293     -0.1895     -9.5057E-02
   8  -5.3641E-02 -0.1244     -0.3386     -0.9309      -2.691      -9.245      -2.691     -0.9344     -0.3506     -0.1616    
   9  -3.3983E-02 -7.5159E-02 -0.1864     -0.4354     -0.9656      -2.177     -0.9661     -0.4376     -0.1939     -9.8593E-02
  10   3.5600E-03  9.9419E-03  4.7514E-02  0.2242      0.9337      0.8472      0.9339      0.2246      4.8327E-02  1.1743E-02
  11   2.5312E-02  4.8626E-02  0.1137      0.2611      0.5159      0.5546      0.5166      0.2634      0.1198      6.4156E-02
  12   2.7744E-02  4.8593E-02  9.7663E-02  0.1830      0.2877      0.3197      0.2886      0.1856      0.1045      6.5301E-02
  13   2.0781E-02  3.4191E-02  6.2983E-02  0.1065      0.1517      0.1685      0.1524      0.1085      6.8269E-02  4.6444E-02
  14   1.3106E-02  2.0563E-02  3.5669E-02  5.6615E-02  7.6512E-02  8.4388E-02  7.6974E-02  5.7985E-02  3.9067E-02  2.8130E-02
  15   8.7279E-03  1.3232E-02  2.2017E-02  3.3560E-02  4.3968E-02  4.8171E-02  4.4292E-02  3.4506E-02  2.4308E-02  1.8180E-02

 HEAD WILL BE SAVED ON UNIT 1100 AT END OF TIME STEP   70, STRESS PERIOD    2


  VOLUME BUDGET FOR ENTIRE MODEL AT END OF TIME STEP   70, STRESS PERIOD   2
  ---------------------------------------------------------------------------------------------------

     CUMULATIVE VOLUME      L**3       RATES FOR THIS TIME STEP      L**3/T          PACKAGE NAME    
     ------------------                 ------------------------                     ----------------

           IN:                                      IN:
           ---                                      ---
              STO-SS =          23.8499                STO-SS =       9.6178E-03     STORAGE                          
              STO-SY =       59199.4696                STO-SY =          20.0902     STORAGE                          
                 WEL =           0.0000                   WEL =           0.0000     WEL-1                            
                 DRN =           0.0000                   DRN =           0.0000     DRN-0                            
                 API =      143033.4968                   API =         206.8465     MAR                              
                 CHD =       2.0279E-08                   CHD =           0.0000     CHD_0                            

            TOTAL IN =      202256.8163              TOTAL IN =         226.9463

          OUT:                                     OUT:
          ----                                     ----
              STO-SS =          20.3011                STO-SS =       1.0163E-02     STORAGE                          
              STO-SY =       39634.2119                STO-SY =          20.0897     STORAGE                          
                 WEL =      162602.3030                   WEL =         206.8465     WEL-1                            
                 DRN =       2.3474E-04                   DRN =       3.2310E-07     DRN-0                            
                 API =           0.0000                   API =           0.0000     MAR                              
                 CHD =       2.0705E-08                   CHD =           0.0000     CHD_0                            

           TOTAL OUT =      202256.8163             TOTAL OUT =         226.9463

            IN - OUT =      -1.0947E-06              IN - OUT =       8.1079E-10

 PERCENT DISCREPANCY =          -0.00     PERCENT DISCREPANCY =           0.00




         TIME SUMMARY AT END OF TIME STEP   70 IN STRESS PERIOD    2
                    SECONDS     MINUTES      HOURS       DAYS        YEARS
                    -----------------------------------------------------------
   TIME STEP LENGTH 8.64000E+05  14400.      240.00      10.000     2.73785E-02
 STRESS PERIOD TIME 6.04800E+07 1.00800E+06  16800.      700.00      1.9165    
         TOTAL TIME 6.05664E+07 1.00944E+06  16824.      701.00      1.9192    


end timestep


start timestep kper="2" kstp="71" mode="normal"

 UBDSV1 SAVING           STO-SS ON UNIT   1099 AT TIME STEP     71, STRESS PERIOD      2
 UBDSV1 SAVING           STO-SY ON UNIT   1099 AT TIME STEP     71, STRESS PERIOD      2
 UBDSV1 SAVING     FLOW-JA-FACE ON UNIT   1099 AT TIME STEP     71, STRESS PERIOD      2
 UBDSV06 SAVING       DATA-SPDIS IN MODEL GWF              PACKAGE NPF             CONNECTED TO MODEL GWF              PACKAGE NPF              ON UNIT   1099 AT TIME STEP     71, STRESS PERIOD      2
 UBDSV06 SAVING              WEL IN MODEL GWF              PACKAGE GWF             CONNECTED TO MODEL GWF              PACKAGE WEL-1            ON UNIT   1099 AT TIME STEP     71, STRESS PERIOD      2
 UBDSV06 SAVING              DRN IN MODEL GWF              PACKAGE GWF             CONNECTED TO MODEL GWF              PACKAGE DRN-0            ON UNIT   1099 AT TIME STEP     71, STRESS PERIOD      2
 UBDSV06 SAVING              API IN MODEL GWF              PACKAGE GWF             CONNECTED TO MODEL GWF              PACKAGE MAR              ON UNIT   1099 AT TIME STEP     71, STRESS PERIOD      2
 UBDSV06 SAVING              CHD IN MODEL GWF              PACKAGE GWF             CONNECTED TO MODEL GWF              PACKAGE CHD_0            ON UNIT   1099 AT TIME STEP     71, STRESS PERIOD      2

    CALCULATED INTERCELL FLOW FOR PERIOD 2 STEP 71
(1,1,1): (1,1,2) 5.134804E-02 (1,2,1) 5.003491E-02
(1,1,2): (1,1,1) -5.134804E-02 (1,1,3) 9.883072E-02 (1,2,2) 8.093859E-02
(1,1,3): (1,1,2) -9.883072E-02 (1,1,4) 0.127957 (1,2,3) 0.146553
(1,1,4): (1,1,3) -0.127957 (1,1,5) 0.114168 (1,2,4) 0.243618
(1,1,5): (1,1,4) -0.114168 (1,1,6) 4.618499E-02 (1,2,5) 0.341549
(1,1,6): (1,1,5) -4.618499E-02 (1,1,7) -4.169290E-02 (1,2,6) 0.379603
(1,1,7): (1,1,6) 4.169290E-02 (1,1,8) -0.105999 (1,2,7) 0.343318
(1,1,8): (1,1,7) 0.105999 (1,1,9) -0.111212 (1,2,8) 0.248816
(1,1,9): (1,1,8) 0.111212 (1,1,10) -6.724578E-02 (1,2,9) 0.159448
(1,1,10): (1,1,9) 6.724578E-02 (1,2,10) 0.110163
(1,2,1): (1,1,1) -5.003491E-02 (1,2,2) 8.225213E-02 (1,3,1) 8.634486E-02
(1,2,2): (1,1,2) -8.093859E-02 (1,2,1) -8.225213E-02 (1,2,3) 0.164457 (1,3,2) 0.147795
(1,2,3): (1,1,3) -0.146553 (1,2,2) -0.164457 (1,2,4) 0.225004 (1,3,3) 0.288584
(1,2,4): (1,1,4) -0.243618 (1,2,3) -0.225004 (1,2,5) 0.211975 (1,3,4) 0.521134
(1,2,5): (1,1,5) -0.341549 (1,2,4) -0.211975 (1,2,6) 8.412916E-02 (1,3,5) 0.784613
(1,2,6): (1,1,6) -0.379603 (1,2,5) -8.412916E-02 (1,2,7) -7.787110E-02 (1,3,6) 0.878139
(1,2,7): (1,1,7) -0.343318 (1,2,6) 7.787110E-02 (1,2,8) -0.200369 (1,3,7) 0.787511
(1,2,8): (1,1,8) -0.248816 (1,2,7) 0.200369 (1,2,9) -0.200537 (1,3,8) 0.529718
(1,2,9): (1,1,9) -0.159448 (1,2,8) 0.200537 (1,2,10) -0.116510 (1,3,9) 0.310386
(1,2,10): (1,1,10) -0.110163 (1,2,9) 0.116510 (1,3,10) 0.199329
(1,3,1): (1,2,1) -8.634486E-02 (1,3,2) 0.143700 (1,4,1) 7.694100E-02
(1,3,2): (1,2,2) -0.147795 (1,3,1) -0.143700 (1,3,3) 0.305268 (1,4,2) 0.152468
(1,3,3): (1,2,3) -0.288584 (1,3,2) -0.305268 (1,3,4) 0.457411 (1,4,3) 0.359874
(1,3,4): (1,2,4) -0.521134 (1,3,3) -0.457411 (1,3,5) 0.474670 (1,4,4) 0.796198
(1,3,5): (1,2,5) -0.784613 (1,3,4) -0.474670 (1,3,6) 0.177031 (1,4,5) 1.43407
(1,3,6): (1,2,6) -0.878139 (1,3,5) -0.177031 (1,3,7) -0.167886 (1,4,6) 1.60075
(1,3,7): (1,2,7) -0.787511 (1,3,6) 0.167886 (1,3,8) -0.457345 (1,4,7) 1.43638
(1,3,8): (1,2,8) -0.529718 (1,3,7) 0.457345 (1,3,9) -0.419635 (1,4,8) 0.803067
(1,3,9): (1,2,9) -0.310386 (1,3,8) 0.419635 (1,3,10) -0.227477 (1,4,9) 0.378179
(1,3,10): (1,2,10) -0.199329 (1,3,9) 0.227477 (1,4,10) 0.200458
(1,4,1): (1,3,1) -7.694100E-02 (1,4,2) 0.219277 (1,5,1) -2.568222E-02
(1,4,2): (1,3,2) -0.152468 (1,4,1) -0.219277 (1,4,3) 0.512985 (1,5,2) -1.917565E-03
(1,4,3): (1,3,3) -0.359874 (1,4,2) -0.512985 (1,4,4) 0.894143 (1,5,3) 0.163265
(1,4,4): (1,3,4) -0.796198 (1,4,3) -0.894143 (1,4,5) 1.11062 (1,5,4) 0.829142
(1,4,5): (1,3,5) -1.43407 (1,4,4) -1.11062 (1,4,6) 0.341806 (1,5,5) 2.51922
(1,4,6): (1,3,6) -1.60075 (1,4,5) -0.341806 (1,4,7) -0.330354 (1,5,6) 2.62092
(1,4,7): (1,3,7) -1.43638 (1,4,6) 0.330354 (1,4,8) -1.08861 (1,5,7) 2.51820
(1,4,8): (1,3,8) -0.803067 (1,4,7) 1.08861 (1,4,9) -0.844692 (1,5,8) 0.825684
(1,4,9): (1,3,9) -0.378179 (1,4,8) 0.844692 (1,4,10) -0.405245 (1,5,9) 0.154752
(1,4,10): (1,3,10) -0.200458 (1,4,9) 0.405245 (1,5,10) -1.504018E-02
(1,5,1): (1,4,1) 2.568222E-02 (1,5,2) 0.243092 (1,6,1) -0.230908
(1,5,2): (1,4,2) 1.917565E-03 (1,5,1) -0.243092 (1,5,3) 0.678999 (1,6,2) -0.404078
(1,5,3): (1,4,3) -0.163265 (1,5,2) -0.678999 (1,5,4) 1.56464 (1,6,3) -0.679629
(1,5,4): (1,4,4) -0.829142 (1,5,3) -1.56464 (1,5,5) 2.80499 (1,6,4) -0.318978
(1,5,5): (1,4,5) -2.51922 (1,5,4) -2.80499 (1,5,6) 0.441721 (1,6,5) 5.06122
(1,5,6): (1,4,6) -2.62092 (1,5,5) -0.441721 (1,5,7) -0.431255 (1,6,6) 3.71779
(1,5,7): (1,4,7) -2.51820 (1,5,6) 0.431255 (1,5,8) -2.78514 (1,6,7) 5.05485
(1,5,8): (1,4,8) -0.825684 (1,5,7) 2.78514 (1,5,9) -1.52002 (1,6,8) -0.339218
(1,5,9): (1,4,9) -0.154752 (1,5,8) 1.52002 (1,5,10) -0.575732 (1,6,9) -0.736782
(1,5,10): (1,4,10) 1.504018E-02 (1,5,9) 0.575732 (1,6,10) -0.549458
(1,6,1): (1,5,1) 0.230908 (1,6,2) 7.019692E-02 (1,7,1) -0.397920
(1,6,2): (1,5,2) 0.404078 (1,6,1) -7.019692E-02 (1,6,3) 0.403450 (1,7,2) -0.880942
(1,6,3): (1,5,3) 0.679629 (1,6,2) -0.403450 (1,6,4) 1.92967 (1,7,3) -2.39967
(1,6,4): (1,5,4) 0.318978 (1,6,3) -1.92967 (1,6,5) 8.33019 (1,7,4) -6.88501
(1,6,5): (1,5,5) -5.06122 (1,6,4) -8.33019 (1,6,6) -0.857704 (1,7,5) -21.4162
(1,6,6): (1,5,6) -3.71779 (1,6,5) 0.857704 (1,6,7) 0.862062 (1,7,6) -33.5909
(1,6,7): (1,5,7) -5.05485 (1,6,6) -0.862062 (1,6,8) -8.32452 (1,7,7) -21.4254
(1,6,8): (1,5,8) 0.339218 (1,6,7) 8.32452 (1,6,9) -1.92215 (1,7,8) -6.91486
(1,6,9): (1,5,9) 0.736782 (1,6,8) 1.92215 (1,6,10) -0.388698 (1,7,9) -2.49017
(1,6,10): (1,5,10) 0.549458 (1,6,9) 0.388698 (1,7,10) -1.14460
(1,7,1): (1,6,1) 0.397920 (1,7,2) -0.410619 (1,8,1) -0.220039
(1,7,2): (1,6,2) 0.880942 (1,7,1) 0.410619 (1,7,3) -1.09758 (1,8,2) -0.518264
(1,7,3): (1,6,3) 2.39967 (1,7,2) 1.09758 (1,7,4) -2.40601 (1,8,3) -1.53782
(1,7,4): (1,6,4) 6.88501 (1,7,3) 2.40601 (1,7,5) -4.95220 (1,8,4) -4.82575
(1,7,5): (1,6,5) 21.4162 (1,7,4) 4.95220 (1,7,6) -10.9230 (1,8,5) -15.8053
(1,7,6): (1,6,6) 33.5909 (1,7,5) 10.9230 (1,7,7) 10.9191 (1,8,6) -55.6425
(1,7,7): (1,6,7) 21.4254 (1,7,6) -10.9191 (1,7,8) 4.93644 (1,8,7) -15.8097
(1,7,8): (1,6,8) 6.91486 (1,7,7) -4.93644 (1,7,9) 2.35170 (1,8,8) -4.84123
(1,7,9): (1,6,9) 2.49017 (1,7,8) -2.35170 (1,7,10) 0.937969 (1,8,9) -1.58613
(1,7,10): (1,6,10) 1.14460 (1,7,9) -0.937969 (1,8,10) -0.664816
(1,8,1): (1,7,1) 0.220039 (1,8,2) -0.709421 (1,9,1) 0.198830
(1,8,2): (1,7,2) 0.518264 (1,8,1) 0.709421 (1,8,3) -2.12323 (1,9,2) 0.492504
(1,8,3): (1,7,3) 1.53782 (1,8,2) 2.12323 (1,8,4) -5.72468 (1,9,3) 1.49838
(1,8,4): (1,7,4) 4.82575 (1,8,3) 5.72468 (1,8,5) -15.9482 (1,9,4) 4.73953
(1,8,5): (1,7,5) 15.8053 (1,8,4) 15.9482 (1,8,6) -47.8769 (1,9,5) 15.5721
(1,8,6): (1,7,6) 55.6425 (1,8,5) 47.8769 (1,8,7) 47.8640 (1,9,6) 55.2545
(1,8,7): (1,7,7) 15.8097 (1,8,6) -47.8640 (1,8,8) 15.9173 (1,9,7) 15.5750
(1,8,8): (1,7,8) 4.84123 (1,8,7) -15.9173 (1,8,9) 5.63367 (1,9,8) 4.75181
(1,8,9): (1,7,9) 1.58613 (1,8,8) -5.63367 (1,8,10) 1.86189 (1,9,9) 1.54076
(1,8,10): (1,7,10) 0.664816 (1,8,9) -1.86189 (1,9,10) 0.629479
(1,9,1): (1,8,1) -0.198830 (1,9,2) -0.415102 (1,10,1) 0.382303
(1,9,2): (1,8,2) -0.492504 (1,9,1) 0.415102 (1,9,3) -1.11093 (1,10,2) 0.860609
(1,9,3): (1,8,3) -1.49838 (1,9,2) 1.11093 (1,9,4) -2.45026 (1,10,3) 2.36089
(1,9,4): (1,8,4) -4.73953 (1,9,3) 2.45026 (1,9,5) -5.07285 (1,10,4) 6.75276
(1,9,5): (1,8,5) -15.5721 (1,9,4) 5.07285 (1,9,6) -10.9363 (1,10,5) 20.7569
(1,9,6): (1,8,6) -55.2545 (1,9,5) 10.9363 (1,9,7) 10.9311 (1,10,6) 32.7824
(1,9,7): (1,8,7) -15.5750 (1,9,6) -10.9311 (1,9,8) 5.05515 (1,10,7) 20.7650
(1,9,8): (1,8,8) -4.75181 (1,9,7) -5.05515 (1,9,9) 2.39307 (1,10,8) 6.78026
(1,9,9): (1,8,9) -1.54076 (1,9,8) -2.39307 (1,9,10) 0.947599 (1,10,9) 2.44701
(1,9,10): (1,8,10) -0.629479 (1,9,9) -0.947599 (1,10,10) 1.11693
(1,10,1): (1,9,1) -0.382303 (1,10,2) 6.112436E-02 (1,11,1) 0.224774
(1,10,2): (1,9,2) -0.860609 (1,10,1) -6.112436E-02 (1,10,3) 0.372389 (1,11,2) 0.397888
(1,10,3): (1,9,3) -2.36089 (1,10,2) -0.372389 (1,10,4) 1.79767 (1,11,3) 0.683263
(1,10,4): (1,9,4) -6.75276 (1,10,3) -1.79767 (1,10,5) 7.73760 (1,11,4) 0.399194
(1,10,5): (1,9,5) -20.7569 (1,10,4) -7.73760 (1,10,6) -0.948258 (1,11,5) -4.53290
(1,10,6): (1,9,6) -32.7824 (1,10,5) 0.948258 (1,10,7) 0.950412 (1,11,6) -3.13764
(1,10,7): (1,9,7) -20.7650 (1,10,6) -0.950412 (1,10,8) -7.73520 (1,11,7) -4.52692
(1,10,8): (1,9,8) -6.78026 (1,10,7) 7.73520 (1,10,9) -1.79509 (1,11,8) 0.418493
(1,10,9): (1,9,9) -2.44701 (1,10,8) 1.79509 (1,10,10) -0.364282 (1,11,9) 0.738597
(1,10,10): (1,9,10) -1.11693 (1,10,9) 0.364282 (1,11,10) 0.540253
(1,11,1): (1,10,1) -0.224774 (1,11,2) 0.233958 (1,12,1) 2.820244E-02
(1,11,2): (1,10,2) -0.397888 (1,11,1) -0.233958 (1,11,3) 0.657694 (1,12,2) 5.058478E-03
(1,11,3): (1,10,3) -0.683263 (1,11,2) -0.657694 (1,11,4) 1.51050 (1,12,3) -0.154216
(1,11,4): (1,10,4) -0.399194 (1,11,3) -1.51050 (1,11,5) 2.67402 (1,12,4) -0.789039
(1,11,5): (1,10,5) 4.53290 (1,11,4) -2.67402 (1,11,6) 0.407373 (1,12,5) -2.38052
(1,11,6): (1,10,6) 3.13764 (1,11,5) -0.407373 (1,11,7) -0.399459 (1,12,6) -2.45847
(1,11,7): (1,10,7) 4.52692 (1,11,6) 0.399459 (1,11,8) -2.65792 (1,12,7) -2.37929
(1,11,8): (1,10,8) -0.418493 (1,11,7) 2.65792 (1,11,9) -1.47168 (1,12,8) -0.785167
(1,11,9): (1,10,9) -0.738597 (1,11,8) 1.47168 (1,11,10) -0.562289 (1,12,9) -0.145042
(1,11,10): (1,10,10) -0.540253 (1,11,9) 0.562289 (1,12,10) 1.903293E-02
(1,12,1): (1,11,1) -2.820244E-02 (1,12,2) 0.210767 (1,13,1) -6.911575E-02
(1,12,2): (1,11,2) -5.058478E-03 (1,12,1) -0.210767 (1,12,3) 0.497636 (1,13,2) -0.143528
(1,12,3): (1,11,3) 0.154216 (1,12,2) -0.497636 (1,12,4) 0.871341 (1,13,3) -0.348088
(1,12,4): (1,11,4) 0.789039 (1,12,3) -0.871341 (1,12,5) 1.07837 (1,13,4) -0.776015
(1,12,5): (1,11,5) 2.38052 (1,12,4) -1.07837 (1,12,6) 0.330699 (1,13,5) -1.39463
(1,12,6): (1,11,6) 2.45847 (1,12,5) -0.330699 (1,12,7) -0.321590 (1,13,6) -1.55527
(1,12,7): (1,11,7) 2.37929 (1,12,6) 0.321590 (1,12,8) -1.05983 (1,13,7) -1.39643
(1,12,8): (1,11,8) 0.785167 (1,12,7) 1.05983 (1,12,9) -0.827397 (1,13,8) -0.781686
(1,12,9): (1,11,9) 0.145042 (1,12,8) 0.827397 (1,12,10) -0.397549 (1,13,9) -0.364197
(1,12,10): (1,11,10) -1.903293E-02 (1,12,9) 0.397549 (1,13,10) -0.188122
(1,13,1): (1,12,1) 6.911575E-02 (1,13,2) 0.136306 (1,14,1) -7.782647E-02
(1,13,2): (1,12,2) 0.143528 (1,13,1) -0.136306 (1,13,3) 0.292777 (1,14,2) -0.137804
(1,13,3): (1,12,3) 0.348088 (1,13,2) -0.292777 (1,13,4) 0.443024 (1,14,3) -0.276150
(1,13,4): (1,12,4) 0.776015 (1,13,3) -0.443024 (1,13,5) 0.461579 (1,14,4) -0.505439
(1,13,5): (1,12,5) 1.39463 (1,13,4) -0.461579 (1,13,6) 0.171857 (1,14,5) -0.764676
(1,13,6): (1,12,6) 1.55527 (1,13,5) -0.171857 (1,13,7) -0.164547 (1,14,6) -0.856639
(1,13,7): (1,12,7) 1.39643 (1,13,6) 0.164547 (1,13,8) -0.447010 (1,14,7) -0.767055
(1,13,8): (1,12,8) 0.781686 (1,13,7) 0.447010 (1,13,9) -0.409725 (1,14,8) -0.512764
(1,13,9): (1,12,9) 0.364197 (1,13,8) 0.409725 (1,13,10) -0.221417 (1,14,9) -0.295556
(1,13,10): (1,12,10) 0.188122 (1,13,9) 0.221417 (1,14,10) -0.185445
(1,14,1): (1,13,1) 7.782647E-02 (1,14,2) 7.632921E-02 (1,15,1) -4.474919E-02
(1,14,2): (1,13,2) 0.137804 (1,14,1) -7.632921E-02 (1,14,3) 0.154409 (1,15,2) -7.460553E-02
(1,14,3): (1,13,3) 0.276150 (1,14,2) -0.154409 (1,14,4) 0.213874 (1,15,3) -0.138544
(1,14,4): (1,13,4) 0.505439 (1,14,3) -0.213874 (1,14,5) 0.203097 (1,15,4) -0.233828
(1,14,5): (1,13,5) 0.764676 (1,14,4) -0.203097 (1,14,6) 8.049482E-02 (1,15,5) -0.330256
(1,14,6): (1,13,6) 0.856639 (1,14,5) -8.049482E-02 (1,14,7) -7.555471E-02 (1,15,6) -0.367706
(1,14,7): (1,13,7) 0.767055 (1,14,6) 7.555471E-02 (1,14,8) -0.193501 (1,15,7) -0.331715
(1,14,8): (1,13,8) 0.512764 (1,14,7) 0.193501 (1,14,9) -0.192736 (1,15,8) -0.238260
(1,14,9): (1,13,9) 0.295556 (1,14,8) 0.192736 (1,14,10) -0.111386 (1,15,9) -0.149956
(1,14,10): (1,13,10) 0.185445 (1,14,9) 0.111386 (1,15,10) -0.101358
(1,15,1): (1,14,1) 4.474919E-02 (1,15,2) 4.647236E-02
(1,15,2): (1,14,2) 7.460553E-02 (1,15,1) -4.647236E-02 (1,15,3) 9.046084E-02
(1,15,3): (1,14,3) 0.138544 (1,15,2) -9.046084E-02 (1,15,4) 0.118609
(1,15,4): (1,14,4) 0.233828 (1,15,3) -0.118609 (1,15,5) 0.106789
(1,15,5): (1,14,5) 0.330256 (1,15,4) -0.106789 (1,15,6) 4.314895E-02
(1,15,6): (1,14,6) 0.367706 (1,15,5) -4.314895E-02 (1,15,7) -3.966553E-02
(1,15,7): (1,14,7) 0.331715 (1,15,6) 3.966553E-02 (1,15,8) -0.100173
(1,15,8): (1,14,8) 0.238260 (1,15,7) 0.100173 (1,15,9) -0.104471
(1,15,9): (1,14,9) 0.149956 (1,15,8) 0.104471 (1,15,10) -6.280746E-02
(1,15,10): (1,14,10) 0.101358 (1,15,9) 6.280746E-02

 WEL PACKAGE (WEL-1) FLOW RATES   PERIOD      2   STEP       71
 ----------------------------------------------------------------------------------------
   NUMBER   CELLID                    RATE       NAME                                    
 ----------------------------------------------------------------------------------------
     1      (1,8,6)              -206.71858      WEL                                     
 ----------------------------------------------------------------------------------------




 DRN PACKAGE (DRN-0) FLOW RATES   PERIOD      2   STEP       71
 ----------------------------------------------------------------------------------------
   NUMBER   CELLID                    RATE       NAME                                    
 ----------------------------------------------------------------------------------------
     1      (1,1,1)               0.0000000      SURF                                    
     2      (1,1,2)               0.0000000      SURF                                    
     3      (1,1,3)               0.0000000      SURF                                    
     4      (1,1,4)               0.0000000      SURF                                    
     5      (1,1,5)               0.0000000      SURF                                    
     6      (1,1,6)               0.0000000      SURF                                    
     7      (1,1,7)               0.0000000      SURF                                    
     8      (1,1,8)               0.0000000      SURF                                    
     9      (1,1,9)               0.0000000      SURF                                    
     10     (1,1,10)              0.0000000      SURF                                    
     11     (1,2,1)               0.0000000      SURF                                    
     12     (1,2,2)               0.0000000      SURF                                    
     13     (1,2,3)               0.0000000      SURF                                    
     14     (1,2,4)               0.0000000      SURF                                    
     15     (1,2,5)               0.0000000      SURF                                    
     16     (1,2,6)               0.0000000      SURF                                    
     17     (1,2,7)               0.0000000      SURF                                    
     18     (1,2,8)               0.0000000      SURF                                    
     19     (1,2,9)               0.0000000      SURF                                    
     20     (1,2,10)              0.0000000      SURF                                    
     21     (1,3,1)               0.0000000      SURF                                    
     22     (1,3,2)               0.0000000      SURF                                    
     23     (1,3,3)               0.0000000      SURF                                    
     24     (1,3,4)               0.0000000      SURF                                    
     25     (1,3,5)               0.0000000      SURF                                    
     26     (1,3,6)               0.0000000      SURF                                    
     27     (1,3,7)               0.0000000      SURF                                    
     28     (1,3,8)               0.0000000      SURF                                    
     29     (1,3,9)               0.0000000      SURF                                    
     30     (1,3,10)              0.0000000      SURF                                    
     31     (1,4,1)               0.0000000      SURF                                    
     32     (1,4,2)               0.0000000      SURF                                    
     33     (1,4,3)               0.0000000      SURF                                    
     34     (1,4,4)               0.0000000      SURF                                    
     35     (1,4,5)               0.0000000      SURF                                    
     36     (1,4,6)               0.0000000      SURF                                    
     37     (1,4,7)               0.0000000      SURF                                    
     38     (1,4,8)               0.0000000      SURF                                    
     39     (1,4,9)               0.0000000      SURF                                    
     40     (1,4,10)              0.0000000      SURF                                    
     41     (1,5,1)               0.0000000      SURF                                    
     42     (1,5,2)               0.0000000      SURF                                    
     43     (1,5,3)               0.0000000      SURF                                    
     44     (1,5,4)               0.0000000      SURF                                    
     45     (1,5,5)               0.0000000      SURF                                    
     46     (1,5,6)               0.0000000      SURF                                    
     47     (1,5,7)               0.0000000      SURF                                    
     48     (1,5,8)               0.0000000      SURF                                    
     49     (1,5,9)               0.0000000      SURF                                    
     50     (1,5,10)              0.0000000      SURF                                    
     51     (1,6,1)               0.0000000      SURF                                    
     52     (1,6,2)               0.0000000      SURF                                    
     53     (1,6,3)               0.0000000      SURF                                    
     54     (1,6,4)               0.0000000      SURF                                    
     55     (1,6,5)               0.0000000      SURF                                    
     56     (1,6,6)               0.0000000      SURF                                    
     57     (1,6,7)              -3.22092092E-07 SURF                                    
     58     (1,6,8)               0.0000000      SURF                                    
     59     (1,6,9)               0.0000000      SURF                                    
     60     (1,6,10)              0.0000000      SURF                                    
     61     (1,7,1)               0.0000000      SURF                                    
     62     (1,7,2)               0.0000000      SURF                                    
     63     (1,7,3)               0.0000000      SURF                                    
     64     (1,7,4)               0.0000000      SURF                                    
     65     (1,7,5)               0.0000000      SURF                                    
     66     (1,7,6)               0.0000000      SURF                                    
     67     (1,7,7)               0.0000000      SURF                                    
     68     (1,7,8)               0.0000000      SURF                                    
     69     (1,7,9)               0.0000000      SURF                                    
     70     (1,7,10)              0.0000000      SURF                                    
     71     (1,8,1)               0.0000000      SURF                                    
     72     (1,8,2)               0.0000000      SURF                                    
     73     (1,8,3)               0.0000000      SURF                                    
     74     (1,8,4)               0.0000000      SURF                                    
     75     (1,8,5)               0.0000000      SURF                                    
     76     (1,8,6)               0.0000000      SURF                                    
     77     (1,8,7)               0.0000000      SURF                                    
     78     (1,8,8)               0.0000000      SURF                                    
     79     (1,8,9)               0.0000000      SURF                                    
     80     (1,8,10)              0.0000000      SURF                                    
     81     (1,9,1)               0.0000000      SURF                                    
     82     (1,9,2)               0.0000000      SURF                                    
     83     (1,9,3)               0.0000000      SURF                                    
     84     (1,9,4)               0.0000000      SURF                                    
     85     (1,9,5)               0.0000000      SURF                                    
     86     (1,9,6)               0.0000000      SURF                                    
     87     (1,9,7)               0.0000000      SURF                                    
     88     (1,9,8)               0.0000000      SURF                                    
     89     (1,9,9)               0.0000000      SURF                                    
     90     (1,9,10)              0.0000000      SURF                                    
     91     (1,10,1)              0.0000000      SURF                                    
     92     (1,10,2)              0.0000000      SURF                                    
     93     (1,10,3)              0.0000000      SURF                                    
     94     (1,10,4)              0.0000000      SURF                                    
     95     (1,10,5)              0.0000000      SURF                                    
     96     (1,10,6)              0.0000000      SURF                                    
     97     (1,10,7)              0.0000000      SURF                                    
     98     (1,10,8)              0.0000000      SURF                                    
     99     (1,10,9)              0.0000000      SURF                                    
    100     (1,10,10)             0.0000000      SURF                                    
    101     (1,11,1)              0.0000000      SURF                                    
    102     (1,11,2)              0.0000000      SURF                                    
    103     (1,11,3)              0.0000000      SURF                                    
    104     (1,11,4)              0.0000000      SURF                                    
    105     (1,11,5)              0.0000000      SURF                                    
    106     (1,11,6)              0.0000000      SURF                                    
    107     (1,11,7)              0.0000000      SURF                                    
    108     (1,11,8)              0.0000000      SURF                                    
    109     (1,11,9)              0.0000000      SURF                                    
    110     (1,11,10)             0.0000000      SURF                                    
    111     (1,12,1)              0.0000000      SURF                                    
    112     (1,12,2)              0.0000000      SURF                                    
    113     (1,12,3)              0.0000000      SURF                                    
    114     (1,12,4)              0.0000000      SURF                                    
    115     (1,12,5)              0.0000000      SURF                                    
    116     (1,12,6)              0.0000000      SURF                                    
    117     (1,12,7)              0.0000000      SURF                                    
    118     (1,12,8)              0.0000000      SURF                                    
    119     (1,12,9)              0.0000000      SURF                                    
    120     (1,12,10)             0.0000000      SURF                                    
    121     (1,13,1)              0.0000000      SURF                                    
    122     (1,13,2)              0.0000000      SURF                                    
    123     (1,13,3)              0.0000000      SURF                                    
    124     (1,13,4)              0.0000000      SURF                                    
    125     (1,13,5)              0.0000000      SURF                                    
    126     (1,13,6)              0.0000000      SURF                                    
    127     (1,13,7)              0.0000000      SURF                                    
    128     (1,13,8)              0.0000000      SURF                                    
    129     (1,13,9)              0.0000000      SURF                                    
    130     (1,13,10)             0.0000000      SURF                                    
    131     (1,14,1)              0.0000000      SURF                                    
    132     (1,14,2)              0.0000000      SURF                                    
    133     (1,14,3)              0.0000000      SURF                                    
    134     (1,14,4)              0.0000000      SURF                                    
    135     (1,14,5)              0.0000000      SURF                                    
    136     (1,14,6)              0.0000000      SURF                                    
    137     (1,14,7)              0.0000000      SURF                                    
    138     (1,14,8)              0.0000000      SURF                                    
    139     (1,14,9)              0.0000000      SURF                                    
    140     (1,14,10)             0.0000000      SURF                                    
    141     (1,15,1)              0.0000000      SURF                                    
    142     (1,15,2)              0.0000000      SURF                                    
    143     (1,15,3)              0.0000000      SURF                                    
    144     (1,15,4)              0.0000000      SURF                                    
    145     (1,15,5)              0.0000000      SURF                                    
    146     (1,15,6)              0.0000000      SURF                                    
    147     (1,15,7)              0.0000000      SURF                                    
    148     (1,15,8)              0.0000000      SURF                                    
    149     (1,15,9)              0.0000000      SURF                                    
    150     (1,15,10)             0.0000000      SURF                                    
 ----------------------------------------------------------------------------------------




 API PACKAGE (MAR) FLOW RATES   PERIOD      2   STEP       71
 -----------------------------------------------
   NUMBER   CELLID                    RATE      
 -----------------------------------------------
     1      (1,6,5)               35.666839     
     2      (1,6,6)               35.666839     
     3      (1,6,7)               35.666839     
     4      (1,10,5)              33.239356     
     5      (1,10,6)              33.239356     
     6      (1,10,7)              33.239356     
 -----------------------------------------------



1
  HEAD IN LAYER   1 AT END OF TIME STEP  71 IN STRESS PERIOD    2
  ---------------------------------------------------------------------------

            1           2           3           4           5           6           7           8           9          10
 ........................................................................................................................
   1   1.1053E-02  1.6179E-02  2.6037E-02  3.8783E-02  5.0143E-02  5.4736E-02  5.0589E-02  4.0043E-02  2.8966E-02  2.2261E-02
   2   1.6048E-02  2.4253E-02  4.0633E-02  6.2992E-02  8.4013E-02  9.2349E-02  8.4633E-02  6.4764E-02  4.4840E-02  3.3241E-02
   3   2.4661E-02  3.8976E-02  6.9292E-02  0.1145      0.1612      0.1786      0.1621      0.1171      7.5645E-02  5.3068E-02
   4   3.2331E-02  5.4140E-02  0.1049      0.1926      0.3005      0.3335      0.3016      0.1959      0.1130      7.2969E-02
   5   2.9771E-02  5.3949E-02  0.1210      0.2733      0.5395      0.5812      0.5405      0.2762      0.1283      7.1476E-02
   6   6.7485E-03  1.3759E-02  5.3887E-02  0.2423      0.9996      0.9216       1.000      0.2432      5.5575E-02  1.6920E-02
   7  -3.3017E-02 -7.4215E-02 -0.1848     -0.4299     -0.9474      -2.154     -0.9478     -0.4318     -0.1921     -9.7347E-02
   8  -5.5093E-02 -0.1264     -0.3415     -0.9342      -2.693      -9.246      -2.694     -0.9378     -0.3538     -0.1645    
   9  -3.5140E-02 -7.6797E-02 -0.1887     -0.4385     -0.9690      -2.180     -0.9695     -0.4407     -0.1966     -0.1009    
  10   3.0782E-03  9.1850E-03  4.6252E-02  0.2221      0.9300      0.8433      0.9302      0.2225      4.6940E-02  1.0682E-02
  11   2.5498E-02  4.8781E-02  0.1138      0.2610      0.5153      0.5539      0.5161      0.2633      0.1199      6.4361E-02
  12   2.8311E-02  4.9284E-02  9.8562E-02  0.1841      0.2889      0.3210      0.2898      0.1868      0.1056      6.6252E-02
  13   2.1419E-02  3.5002E-02  6.4093E-02  0.1079      0.1534      0.1703      0.1541      0.1101      6.9553E-02  4.7564E-02
  14   1.3653E-02  2.1269E-02  3.6654E-02  5.7918E-02  7.8070E-02  8.6051E-02  7.8560E-02  5.9361E-02  4.0201E-02  2.9107E-02
  15   9.1838E-03  1.3825E-02  2.2850E-02  3.4670E-02  4.5301E-02  4.9594E-02  4.5647E-02  3.5676E-02  2.5266E-02  1.9001E-02

 HEAD WILL BE SAVED ON UNIT 1100 AT END OF TIME STEP   71, STRESS PERIOD    2


  VOLUME BUDGET FOR ENTIRE MODEL AT END OF TIME STEP   71, STRESS PERIOD   2
  ---------------------------------------------------------------------------------------------------

     CUMULATIVE VOLUME      L**3       RATES FOR THIS TIME STEP      L**3/T          PACKAGE NAME    
     ------------------                 ------------------------                     ----------------

           IN:                                      IN:
           ---                                      ---
              STO-SS =          23.9450                STO-SS =       9.5025E-03     STORAGE                          
              STO-SY =       59397.8154                STO-SY =          19.8346     STORAGE                          
                 WEL =           0.0000                   WEL =           0.0000     WEL-1                            
                 DRN =           0.0000                   DRN =           0.0000     DRN-0                            
                 API =      145100.6826                   API =         206.7186     MAR                              
                 CHD =       2.0279E-08                   CHD =           0.0000     CHD_0                            

            TOTAL IN =      204522.4430              TOTAL IN =         226.5627

          OUT:                                     OUT:
          ----                                     ----
              STO-SS =          20.4015                STO-SS =       1.0034E-02     STORAGE                          
              STO-SY =       39832.5524                STO-SY =          19.8341     STORAGE                          
                 WEL =      164669.4889                   WEL =         206.7186     WEL-1                            
                 DRN =       2.3796E-04                   DRN =       3.2209E-07     DRN-0                            
                 API =           0.0000                   API =           0.0000     MAR                              
                 CHD =       2.0705E-08                   CHD =           0.0000     CHD_0                            

           TOTAL OUT =      204522.4430             TOTAL OUT =         226.5627

            IN - OUT =      -1.0863E-06              IN - OUT =       8.4256E-10

 PERCENT DISCREPANCY =          -0.00     PERCENT DISCREPANCY =           0.00




         TIME SUMMARY AT END OF TIME STEP   71 IN STRESS PERIOD    2
                    SECONDS     MINUTES      HOURS       DAYS        YEARS
                    -----------------------------------------------------------
   TIME STEP LENGTH 8.64000E+05  14400.      240.00      10.000     2.73785E-02
 STRESS PERIOD TIME 6.13440E+07 1.02240E+06  17040.      710.00      1.9439    
         TOTAL TIME 6.14304E+07 1.02384E+06  17064.      711.00      1.9466    


end timestep


start timestep kper="2" kstp="72" mode="normal"

 UBDSV1 SAVING           STO-SS ON UNIT   1099 AT TIME STEP     72, STRESS PERIOD      2
 UBDSV1 SAVING           STO-SY ON UNIT   1099 AT TIME STEP     72, STRESS PERIOD      2
 UBDSV1 SAVING     FLOW-JA-FACE ON UNIT   1099 AT TIME STEP     72, STRESS PERIOD      2
 UBDSV06 SAVING       DATA-SPDIS IN MODEL GWF              PACKAGE NPF             CONNECTED TO MODEL GWF              PACKAGE NPF              ON UNIT   1099 AT TIME STEP     72, STRESS PERIOD      2
 UBDSV06 SAVING              WEL IN MODEL GWF              PACKAGE GWF             CONNECTED TO MODEL GWF              PACKAGE WEL-1            ON UNIT   1099 AT TIME STEP     72, STRESS PERIOD      2
 UBDSV06 SAVING              DRN IN MODEL GWF              PACKAGE GWF             CONNECTED TO MODEL GWF              PACKAGE DRN-0            ON UNIT   1099 AT TIME STEP     72, STRESS PERIOD      2
 UBDSV06 SAVING              API IN MODEL GWF              PACKAGE GWF             CONNECTED TO MODEL GWF              PACKAGE MAR              ON UNIT   1099 AT TIME STEP     72, STRESS PERIOD      2
 UBDSV06 SAVING              CHD IN MODEL GWF              PACKAGE GWF             CONNECTED TO MODEL GWF              PACKAGE CHD_0            ON UNIT   1099 AT TIME STEP     72, STRESS PERIOD      2

    CALCULATED INTERCELL FLOW FOR PERIOD 2 STEP 72
(1,1,1): (1,1,2) 5.269614E-02 (1,2,1) 5.085941E-02
(1,1,2): (1,1,1) -5.269614E-02 (1,1,3) 0.101189 (1,2,2) 8.192581E-02
(1,1,3): (1,1,2) -0.101189 (1,1,4) 0.130665 (1,2,3) 0.147841
(1,1,4): (1,1,3) -0.130665 (1,1,5) 0.116361 (1,2,4) 0.245290
(1,1,5): (1,1,4) -0.116361 (1,1,6) 4.709913E-02 (1,2,5) 0.343578
(1,1,6): (1,1,5) -4.709913E-02 (1,1,7) -4.232279E-02 (1,2,6) 0.381795
(1,1,7): (1,1,6) 4.232279E-02 (1,1,8) -0.107762 (1,2,7) 0.345399
(1,1,8): (1,1,7) 0.107762 (1,1,9) -0.113209 (1,2,8) 0.250611
(1,1,9): (1,1,8) 0.113209 (1,1,10) -6.853514E-02 (1,2,9) 0.160963
(1,1,10): (1,1,9) 6.853514E-02 (1,2,10) 0.111516
(1,2,1): (1,1,1) -5.085941E-02 (1,2,2) 8.376311E-02 (1,3,1) 8.706279E-02
(1,2,2): (1,1,2) -8.192581E-02 (1,2,1) -8.376311E-02 (1,2,3) 0.167117 (1,3,2) 0.148575
(1,2,3): (1,1,3) -0.147841 (1,2,2) -0.167117 (1,2,4) 0.228097 (1,3,3) 0.289542
(1,2,4): (1,1,4) -0.245290 (1,2,3) -0.228097 (1,2,5) 0.214524 (1,3,4) 0.522462
(1,2,5): (1,1,5) -0.343578 (1,2,4) -0.214524 (1,2,6) 8.520555E-02 (1,3,5) 0.786426
(1,2,6): (1,1,6) -0.381795 (1,2,5) -8.520555E-02 (1,2,7) -7.861120E-02 (1,3,6) 0.880202
(1,2,7): (1,1,7) -0.345399 (1,2,6) 7.861120E-02 (1,2,8) -0.202418 (1,3,7) 0.789380
(1,2,8): (1,1,8) -0.250611 (1,2,7) 0.202418 (1,2,9) -0.202815 (1,3,8) 0.531168
(1,2,9): (1,1,9) -0.160963 (1,2,8) 0.202815 (1,2,10) -0.117961 (1,3,9) 0.311538
(1,2,10): (1,1,10) -0.111516 (1,2,9) 0.117961 (1,3,10) 0.200369
(1,3,1): (1,2,1) -8.706279E-02 (1,3,2) 0.145273 (1,4,1) 7.597042E-02
(1,3,2): (1,2,2) -0.148575 (1,3,1) -0.145273 (1,3,3) 0.308110 (1,4,2) 0.151036
(1,3,3): (1,2,3) -0.289542 (1,3,2) -0.308110 (1,3,4) 0.460878 (1,4,3) 0.357859
(1,3,4): (1,2,4) -0.522462 (1,3,3) -0.460878 (1,3,5) 0.477706 (1,4,4) 0.794026
(1,3,5): (1,2,5) -0.786426 (1,3,4) -0.477706 (1,3,6) 0.178356 (1,4,5) 1.43236
(1,3,6): (1,2,6) -0.880202 (1,3,5) -0.178356 (1,3,7) -0.168818 (1,4,6) 1.59937
(1,3,7): (1,2,7) -0.789380 (1,3,6) 0.168818 (1,3,8) -0.459814 (1,4,7) 1.43465
(1,3,8): (1,2,8) -0.531168 (1,3,7) 0.459814 (1,3,9) -0.422213 (1,4,8) 0.800805
(1,3,9): (1,2,9) -0.311538 (1,3,8) 0.422213 (1,3,10) -0.229040 (1,4,9) 0.375887
(1,3,10): (1,2,10) -0.200369 (1,3,9) 0.229040 (1,4,10) 0.198393
(1,4,1): (1,3,1) -7.597042E-02 (1,4,2) 0.220390 (1,5,1) -2.968399E-02
(1,4,2): (1,3,2) -0.151036 (1,4,1) -0.220390 (1,4,3) 0.515250 (1,5,2) -7.226253E-03
(1,4,3): (1,3,3) -0.357859 (1,4,2) -0.515250 (1,4,4) 0.897477 (1,5,3) 0.156173
(1,4,4): (1,3,4) -0.794026 (1,4,3) -0.897477 (1,4,5) 1.11415 (1,5,4) 0.821245
(1,4,5): (1,3,5) -1.43236 (1,4,4) -1.11415 (1,4,6) 0.343463 (1,5,5) 2.51230
(1,4,6): (1,3,6) -1.59937 (1,4,5) -0.343463 (1,4,7) -0.331637 (1,5,6) 2.61472
(1,4,7): (1,3,7) -1.43465 (1,4,6) 0.331637 (1,4,8) -1.09164 (1,5,7) 2.51110
(1,4,8): (1,3,8) -0.800805 (1,4,7) 1.09164 (1,4,9) -0.847319 (1,5,8) 0.817305
(1,4,9): (1,3,9) -0.375887 (1,4,8) 0.847319 (1,4,10) -0.406588 (1,5,9) 0.146552
(1,4,10): (1,3,10) -0.198393 (1,4,9) 0.406588 (1,5,10) -2.251991E-02
(1,5,1): (1,4,1) 2.968399E-02 (1,5,2) 0.242895 (1,6,1) -0.237627
(1,5,2): (1,4,2) 7.226253E-03 (1,5,1) -0.242895 (1,5,3) 0.679484 (1,6,2) -0.412862
(1,5,3): (1,4,3) -0.156173 (1,5,2) -0.679484 (1,5,4) 1.56723 (1,6,3) -0.691312
(1,5,4): (1,4,4) -0.821245 (1,5,3) -1.56723 (1,5,5) 2.80967 (1,6,4) -0.331818
(1,5,5): (1,4,5) -2.51230 (1,5,4) -2.80967 (1,5,6) 0.444095 (1,6,5) 5.05176
(1,5,6): (1,4,6) -2.61472 (1,5,5) -0.444095 (1,5,7) -0.433423 (1,6,6) 3.71016
(1,5,7): (1,4,7) -2.51110 (1,5,6) 0.433423 (1,5,8) -2.78963 (1,6,7) 5.04507
(1,5,8): (1,4,8) -0.817305 (1,5,7) 2.78963 (1,5,9) -1.52254 (1,6,8) -0.352880
(1,5,9): (1,4,9) -0.146552 (1,5,8) 1.52254 (1,5,10) -0.576363 (1,6,9) -0.750300
(1,5,10): (1,4,10) 2.251991E-02 (1,5,9) 0.576363 (1,6,10) -0.561752
(1,6,1): (1,5,1) 0.237627 (1,6,2) 6.795402E-02 (1,7,1) -0.404608
(1,6,2): (1,5,2) 0.412862 (1,6,1) -6.795402E-02 (1,6,3) 0.401066 (1,7,2) -0.889722
(1,6,3): (1,5,3) 0.691312 (1,6,2) -0.401066 (1,6,4) 1.93106 (1,7,3) -2.41175
(1,6,4): (1,5,4) 0.331818 (1,6,3) -1.93106 (1,6,5) 8.33912 (1,7,4) -6.90032
(1,6,5): (1,5,5) -5.05176 (1,6,4) -8.33912 (1,6,6) -0.853633 (1,7,5) -21.4353
(1,6,6): (1,5,6) -3.71016 (1,6,5) 0.853633 (1,6,7) 0.857895 (1,7,6) -33.6071
(1,6,7): (1,5,7) -5.04507 (1,6,6) -0.857895 (1,6,8) -8.33380 (1,7,7) -21.4448
(1,6,8): (1,5,8) 0.352880 (1,6,7) 8.33380 (1,6,9) -1.92448 (1,7,8) -6.93099
(1,6,9): (1,5,9) 0.750300 (1,6,8) 1.92448 (1,6,10) -0.388129 (1,7,9) -2.50405
(1,6,10): (1,5,10) 0.561752 (1,6,9) 0.388129 (1,7,10) -1.15681
(1,7,1): (1,6,1) 0.404608 (1,7,2) -0.414920 (1,8,1) -0.222850
(1,7,2): (1,6,2) 0.889722 (1,7,1) 0.414920 (1,7,3) -1.10311 (1,8,2) -0.522011
(1,7,3): (1,6,3) 2.41175 (1,7,2) 1.10311 (1,7,4) -2.40717 (1,8,3) -1.54317
(1,7,4): (1,6,4) 6.90032 (1,7,3) 2.40717 (1,7,5) -4.94500 (1,8,4) -4.83260
(1,7,5): (1,6,5) 21.4353 (1,7,4) 4.94500 (1,7,6) -10.9143 (1,8,5) -15.8109
(1,7,6): (1,6,6) 33.6071 (1,7,5) 10.9143 (1,7,7) 10.9101 (1,8,6) -55.6307
(1,7,7): (1,6,7) 21.4448 (1,7,6) -10.9101 (1,7,8) 4.92835 (1,8,7) -15.8154
(1,7,8): (1,6,8) 6.93099 (1,7,7) -4.92835 (1,7,9) 2.35090 (1,8,8) -4.84840
(1,7,9): (1,6,9) 2.50405 (1,7,8) -2.35090 (1,7,10) 0.940023 (1,8,9) -1.59221
(1,7,10): (1,6,10) 1.15681 (1,7,9) -0.940023 (1,8,10) -0.669969
(1,8,1): (1,7,1) 0.222850 (1,8,2) -0.714663 (1,9,1) 0.201682
(1,8,2): (1,7,2) 0.522011 (1,8,1) 0.714663 (1,8,3) -2.13040 (1,9,2) 0.496024
(1,8,3): (1,7,3) 1.54317 (1,8,2) 2.13040 (1,8,4) -5.72722 (1,9,3) 1.50209
(1,8,4): (1,7,4) 4.83260 (1,8,3) 5.72722 (1,8,5) -15.9379 (1,9,4) 4.73998
(1,8,5): (1,7,5) 15.8109 (1,8,4) 15.9379 (1,8,6) -47.8428 (1,9,5) 15.5602
(1,8,6): (1,7,6) 55.6307 (1,8,5) 47.8428 (1,8,7) 47.8292 (1,9,6) 55.2130
(1,8,7): (1,7,7) 15.8154 (1,8,6) -47.8292 (1,8,8) 15.9057 (1,9,7) 15.5633
(1,8,8): (1,7,8) 4.84840 (1,8,7) -15.9057 (1,8,9) 5.63374 (1,9,8) 4.75257
(1,8,9): (1,7,9) 1.59221 (1,8,8) -5.63374 (1,8,10) 1.86485 (1,9,9) 1.54523
(1,8,10): (1,7,10) 0.669969 (1,8,9) -1.86485 (1,9,10) 0.634466
(1,9,1): (1,8,1) -0.201682 (1,9,2) -0.419669 (1,10,1) 0.388948
(1,9,2): (1,8,2) -0.496024 (1,9,1) 0.419669 (1,9,3) -1.11787 (1,10,2) 0.869137
(1,9,3): (1,8,3) -1.50209 (1,9,2) 1.11787 (1,9,4) -2.45600 (1,10,3) 2.37142
(1,9,4): (1,8,4) -4.73998 (1,9,3) 2.45600 (1,9,5) -5.07463 (1,10,4) 6.76080
(1,9,5): (1,8,5) -15.5602 (1,9,4) 5.07463 (1,9,6) -10.9292 (1,10,5) 20.7466
(1,9,6): (1,8,6) -55.2130 (1,9,5) 10.9292 (1,9,7) 10.9236 (1,10,6) 32.7611
(1,9,7): (1,8,7) -15.5633 (1,9,6) -10.9236 (1,9,8) 5.05605 (1,10,7) 20.7550
(1,9,8): (1,8,8) -4.75257 (1,9,7) -5.05605 (1,9,9) 2.39688 (1,10,8) 6.78911
(1,9,9): (1,8,9) -1.54523 (1,9,8) -2.39688 (1,9,10) 0.951091 (1,10,9) 2.45934
(1,9,10): (1,8,10) -0.634466 (1,9,9) -0.951091 (1,10,10) 1.12890
(1,10,1): (1,9,1) -0.388948 (1,10,2) 5.840891E-02 (1,11,1) 0.231456
(1,10,2): (1,9,2) -0.869137 (1,10,1) -5.840891E-02 (1,10,3) 0.367330 (1,11,2) 0.406935
(1,10,3): (1,9,3) -2.37142 (1,10,2) -0.367330 (1,10,4) 1.78911 (1,11,3) 0.696517
(1,10,4): (1,9,4) -6.76080 (1,10,3) -1.78911 (1,10,5) 7.71773 (1,11,4) 0.418633
(1,10,5): (1,9,5) -20.7466 (1,10,4) -7.71773 (1,10,6) -0.950501 (1,11,5) -4.49840
(1,10,6): (1,9,6) -32.7611 (1,10,5) 0.950501 (1,10,7) 0.952540 (1,11,6) -3.10209
(1,10,7): (1,9,7) -20.7550 (1,10,6) -0.952540 (1,10,8) -7.71569 (1,11,7) -4.49213
(1,10,8): (1,9,8) -6.78911 (1,10,7) 7.71569 (1,10,9) -1.78742 (1,11,8) 0.438730
(1,10,9): (1,9,9) -2.45934 (1,10,8) 1.78742 (1,10,10) -0.361007 (1,11,9) 0.753664
(1,10,10): (1,9,10) -1.12890 (1,10,9) 0.361007 (1,11,10) 0.552849
(1,11,1): (1,10,1) -0.231456 (1,11,2) 0.233588 (1,12,1) 3.208072E-02
(1,11,2): (1,10,2) -0.406935 (1,11,1) -0.233588 (1,11,3) 0.656801 (1,12,2) 1.049282E-02
(1,11,3): (1,10,3) -0.696517 (1,11,2) -0.656801 (1,11,4) 1.50825 (1,12,3) -0.145893
(1,11,4): (1,10,4) -0.418633 (1,11,3) -1.50825 (1,11,5) 2.66904 (1,12,4) -0.776492
(1,11,5): (1,10,5) 4.49840 (1,11,4) -2.66904 (1,11,6) 0.406540 (1,12,5) -2.36194
(1,11,6): (1,10,6) 3.10209 (1,11,5) -0.406540 (1,11,7) -0.398452 (1,12,6) -2.43841
(1,11,7): (1,10,7) 4.49213 (1,11,6) 0.398452 (1,11,8) -2.65276 (1,12,7) -2.36056
(1,11,8): (1,10,8) -0.438730 (1,11,7) 2.65276 (1,11,9) -1.46930 (1,12,8) -0.772167
(1,11,9): (1,10,9) -0.753664 (1,11,8) 1.46930 (1,11,10) -0.561451 (1,12,9) -0.135662
(1,11,10): (1,10,10) -0.552849 (1,11,9) 0.561451 (1,12,10) 2.660282E-02
(1,12,1): (1,11,1) -3.208072E-02 (1,12,2) 0.211957 (1,13,1) -6.831355E-02
(1,12,2): (1,11,2) -1.049282E-02 (1,12,1) -0.211957 (1,12,3) 0.499635 (1,13,2) -0.142220
(1,12,3): (1,11,3) 0.145893 (1,12,2) -0.499635 (1,12,4) 0.873282 (1,13,3) -0.345824
(1,12,4): (1,11,4) 0.776492 (1,12,3) -0.873282 (1,12,5) 1.07924 (1,13,4) -0.772361
(1,12,5): (1,11,5) 2.36194 (1,12,4) -1.07924 (1,12,6) 0.331308 (1,13,5) -1.38926
(1,12,6): (1,11,6) 2.43841 (1,12,5) -0.331308 (1,12,7) -0.321868 (1,13,6) -1.54939
(1,12,7): (1,11,7) 2.36056 (1,12,6) 0.321868 (1,12,8) -1.06022 (1,13,7) -1.39105
(1,12,8): (1,11,8) 0.772167 (1,12,7) 1.06022 (1,12,9) -0.828599 (1,13,8) -0.777962
(1,12,9): (1,11,9) 0.135662 (1,12,8) 0.828599 (1,12,10) -0.398518 (1,13,9) -0.361714
(1,12,10): (1,11,10) -2.660282E-02 (1,12,9) 0.398518 (1,13,10) -0.186282
(1,13,1): (1,12,1) 6.831355E-02 (1,13,2) 0.137999 (1,14,1) -7.866769E-02
(1,13,2): (1,12,2) 0.142220 (1,13,1) -0.137999 (1,13,3) 0.295725 (1,14,2) -0.138760
(1,13,3): (1,12,3) 0.345824 (1,13,2) -0.295725 (1,13,4) 0.446334 (1,14,3) -0.277286
(1,13,4): (1,12,4) 0.772361 (1,13,3) -0.446334 (1,13,5) 0.464126 (1,14,4) -0.506713
(1,13,5): (1,12,5) 1.38926 (1,13,4) -0.464126 (1,13,6) 0.172957 (1,14,5) -0.765952
(1,13,6): (1,12,6) 1.54939 (1,13,5) -0.172957 (1,13,7) -0.165299 (1,14,6) -0.857961
(1,13,7): (1,12,7) 1.39105 (1,13,6) 0.165299 (1,13,8) -0.449026 (1,14,7) -0.768388
(1,13,8): (1,12,8) 0.777962 (1,13,7) 0.449026 (1,13,9) -0.412149 (1,14,8) -0.514168
(1,13,9): (1,12,9) 0.361714 (1,13,8) 0.412149 (1,13,10) -0.223024 (1,14,9) -0.296925
(1,13,10): (1,12,10) 0.186282 (1,13,9) 0.223024 (1,14,10) -0.186757
(1,14,1): (1,13,1) 7.866769E-02 (1,14,2) 7.790663E-02 (1,15,1) -4.562658E-02
(1,14,2): (1,13,2) 0.138760 (1,14,1) -7.790663E-02 (1,14,3) 0.157174 (1,15,2) -7.569354E-02
(1,14,3): (1,13,3) 0.277286 (1,14,2) -0.157174 (1,14,4) 0.217042 (1,15,3) -0.139995
(1,14,4): (1,13,4) 0.506713 (1,14,3) -0.217042 (1,14,5) 0.205638 (1,15,4) -0.235682
(1,14,5): (1,13,5) 0.765952 (1,14,4) -0.205638 (1,14,6) 8.154864E-02 (1,15,5) -0.332421
(1,14,6): (1,13,6) 0.857961 (1,14,5) -8.154864E-02 (1,14,7) -7.631796E-02 (1,15,6) -0.370009
(1,14,7): (1,13,7) 0.768388 (1,14,6) 7.631796E-02 (1,14,8) -0.195586 (1,15,7) -0.333930
(1,14,8): (1,13,8) 0.514168 (1,14,7) 0.195586 (1,14,9) -0.195122 (1,15,8) -0.240239
(1,14,9): (1,13,9) 0.296925 (1,14,8) 0.195122 (1,14,10) -0.112936 (1,15,9) -0.151649
(1,14,10): (1,13,10) 0.186757 (1,14,9) 0.112936 (1,15,10) -0.102862
(1,15,1): (1,14,1) 4.562658E-02 (1,15,2) 4.783900E-02
(1,15,2): (1,14,2) 7.569354E-02 (1,15,1) -4.783900E-02 (1,15,3) 9.286225E-02
(1,15,3): (1,14,3) 0.139995 (1,15,2) -9.286225E-02 (1,15,4) 0.121371
(1,15,4): (1,14,4) 0.235682 (1,15,3) -0.121371 (1,15,5) 0.109020
(1,15,5): (1,14,5) 0.332421 (1,15,4) -0.109020 (1,15,6) 4.406597E-02
(1,15,6): (1,14,6) 0.370009 (1,15,5) -4.406597E-02 (1,15,7) -4.034184E-02
(1,15,7): (1,14,7) 0.333930 (1,15,6) 4.034184E-02 (1,15,8) -0.102022
(1,15,8): (1,14,8) 0.240239 (1,15,7) 0.102022 (1,15,9) -0.106571
(1,15,9): (1,14,9) 0.151649 (1,15,8) 0.106571 (1,15,10) -6.416757E-02
(1,15,10): (1,14,10) 0.102862 (1,15,9) 6.416757E-02

 WEL PACKAGE (WEL-1) FLOW RATES   PERIOD      2   STEP       72
 ----------------------------------------------------------------------------------------
   NUMBER   CELLID                    RATE       NAME                                    
 ----------------------------------------------------------------------------------------
     1      (1,8,6)              -206.59411      WEL                                     
 ----------------------------------------------------------------------------------------




 DRN PACKAGE (DRN-0) FLOW RATES   PERIOD      2   STEP       72
 ----------------------------------------------------------------------------------------
   NUMBER   CELLID                    RATE       NAME                                    
 ----------------------------------------------------------------------------------------
     1      (1,1,1)               0.0000000      SURF                                    
     2      (1,1,2)               0.0000000      SURF                                    
     3      (1,1,3)               0.0000000      SURF                                    
     4      (1,1,4)               0.0000000      SURF                                    
     5      (1,1,5)               0.0000000      SURF                                    
     6      (1,1,6)               0.0000000      SURF                                    
     7      (1,1,7)               0.0000000      SURF                                    
     8      (1,1,8)               0.0000000      SURF                                    
     9      (1,1,9)               0.0000000      SURF                                    
     10     (1,1,10)              0.0000000      SURF                                    
     11     (1,2,1)               0.0000000      SURF                                    
     12     (1,2,2)               0.0000000      SURF                                    
     13     (1,2,3)               0.0000000      SURF                                    
     14     (1,2,4)               0.0000000      SURF                                    
     15     (1,2,5)               0.0000000      SURF                                    
     16     (1,2,6)               0.0000000      SURF                                    
     17     (1,2,7)               0.0000000      SURF                                    
     18     (1,2,8)               0.0000000      SURF                                    
     19     (1,2,9)               0.0000000      SURF                                    
     20     (1,2,10)              0.0000000      SURF                                    
     21     (1,3,1)               0.0000000      SURF                                    
     22     (1,3,2)               0.0000000      SURF                                    
     23     (1,3,3)               0.0000000      SURF                                    
     24     (1,3,4)               0.0000000      SURF                                    
     25     (1,3,5)               0.0000000      SURF                                    
     26     (1,3,6)               0.0000000      SURF                                    
     27     (1,3,7)               0.0000000      SURF                                    
     28     (1,3,8)               0.0000000      SURF                                    
     29     (1,3,9)               0.0000000      SURF                                    
     30     (1,3,10)              0.0000000      SURF                                    
     31     (1,4,1)               0.0000000      SURF                                    
     32     (1,4,2)               0.0000000      SURF                                    
     33     (1,4,3)               0.0000000      SURF                                    
     34     (1,4,4)               0.0000000      SURF                                    
     35     (1,4,5)               0.0000000      SURF                                    
     36     (1,4,6)               0.0000000      SURF                                    
     37     (1,4,7)               0.0000000      SURF                                    
     38     (1,4,8)               0.0000000      SURF                                    
     39     (1,4,9)               0.0000000      SURF                                    
     40     (1,4,10)              0.0000000      SURF                                    
     41     (1,5,1)               0.0000000      SURF                                    
     42     (1,5,2)               0.0000000      SURF                                    
     43     (1,5,3)               0.0000000      SURF                                    
     44     (1,5,4)               0.0000000      SURF                                    
     45     (1,5,5)               0.0000000      SURF                                    
     46     (1,5,6)               0.0000000      SURF                                    
     47     (1,5,7)               0.0000000      SURF                                    
     48     (1,5,8)               0.0000000      SURF                                    
     49     (1,5,9)               0.0000000      SURF                                    
     50     (1,5,10)              0.0000000      SURF                                    
     51     (1,6,1)               0.0000000      SURF                                    
     52     (1,6,2)               0.0000000      SURF                                    
     53     (1,6,3)               0.0000000      SURF                                    
     54     (1,6,4)               0.0000000      SURF                                    
     55     (1,6,5)               0.0000000      SURF                                    
     56     (1,6,6)               0.0000000      SURF                                    
     57     (1,6,7)              -3.21160769E-07 SURF                                    
     58     (1,6,8)               0.0000000      SURF                                    
     59     (1,6,9)               0.0000000      SURF                                    
     60     (1,6,10)              0.0000000      SURF                                    
     61     (1,7,1)               0.0000000      SURF                                    
     62     (1,7,2)               0.0000000      SURF                                    
     63     (1,7,3)               0.0000000      SURF                                    
     64     (1,7,4)               0.0000000      SURF                                    
     65     (1,7,5)               0.0000000      SURF                                    
     66     (1,7,6)               0.0000000      SURF                                    
     67     (1,7,7)               0.0000000      SURF                                    
     68     (1,7,8)               0.0000000      SURF                                    
     69     (1,7,9)               0.0000000      SURF                                    
     70     (1,7,10)              0.0000000      SURF                                    
     71     (1,8,1)               0.0000000      SURF                                    
     72     (1,8,2)               0.0000000      SURF                                    
     73     (1,8,3)               0.0000000      SURF                                    
     74     (1,8,4)               0.0000000      SURF                                    
     75     (1,8,5)               0.0000000      SURF                                    
     76     (1,8,6)               0.0000000      SURF                                    
     77     (1,8,7)               0.0000000      SURF                                    
     78     (1,8,8)               0.0000000      SURF                                    
     79     (1,8,9)               0.0000000      SURF                                    
     80     (1,8,10)              0.0000000      SURF                                    
     81     (1,9,1)               0.0000000      SURF                                    
     82     (1,9,2)               0.0000000      SURF                                    
     83     (1,9,3)               0.0000000      SURF                                    
     84     (1,9,4)               0.0000000      SURF                                    
     85     (1,9,5)               0.0000000      SURF                                    
     86     (1,9,6)               0.0000000      SURF                                    
     87     (1,9,7)               0.0000000      SURF                                    
     88     (1,9,8)               0.0000000      SURF                                    
     89     (1,9,9)               0.0000000      SURF                                    
     90     (1,9,10)              0.0000000      SURF                                    
     91     (1,10,1)              0.0000000      SURF                                    
     92     (1,10,2)              0.0000000      SURF                                    
     93     (1,10,3)              0.0000000      SURF                                    
     94     (1,10,4)              0.0000000      SURF                                    
     95     (1,10,5)              0.0000000      SURF                                    
     96     (1,10,6)              0.0000000      SURF                                    
     97     (1,10,7)              0.0000000      SURF                                    
     98     (1,10,8)              0.0000000      SURF                                    
     99     (1,10,9)              0.0000000      SURF                                    
    100     (1,10,10)             0.0000000      SURF                                    
    101     (1,11,1)              0.0000000      SURF                                    
    102     (1,11,2)              0.0000000      SURF                                    
    103     (1,11,3)              0.0000000      SURF                                    
    104     (1,11,4)              0.0000000      SURF                                    
    105     (1,11,5)              0.0000000      SURF                                    
    106     (1,11,6)              0.0000000      SURF                                    
    107     (1,11,7)              0.0000000      SURF                                    
    108     (1,11,8)              0.0000000      SURF                                    
    109     (1,11,9)              0.0000000      SURF                                    
    110     (1,11,10)             0.0000000      SURF                                    
    111     (1,12,1)              0.0000000      SURF                                    
    112     (1,12,2)              0.0000000      SURF                                    
    113     (1,12,3)              0.0000000      SURF                                    
    114     (1,12,4)              0.0000000      SURF                                    
    115     (1,12,5)              0.0000000      SURF                                    
    116     (1,12,6)              0.0000000      SURF                                    
    117     (1,12,7)              0.0000000      SURF                                    
    118     (1,12,8)              0.0000000      SURF                                    
    119     (1,12,9)              0.0000000      SURF                                    
    120     (1,12,10)             0.0000000      SURF                                    
    121     (1,13,1)              0.0000000      SURF                                    
    122     (1,13,2)              0.0000000      SURF                                    
    123     (1,13,3)              0.0000000      SURF                                    
    124     (1,13,4)              0.0000000      SURF                                    
    125     (1,13,5)              0.0000000      SURF                                    
    126     (1,13,6)              0.0000000      SURF                                    
    127     (1,13,7)              0.0000000      SURF                                    
    128     (1,13,8)              0.0000000      SURF                                    
    129     (1,13,9)              0.0000000      SURF                                    
    130     (1,13,10)             0.0000000      SURF                                    
    131     (1,14,1)              0.0000000      SURF                                    
    132     (1,14,2)              0.0000000      SURF                                    
    133     (1,14,3)              0.0000000      SURF                                    
    134     (1,14,4)              0.0000000      SURF                                    
    135     (1,14,5)              0.0000000      SURF                                    
    136     (1,14,6)              0.0000000      SURF                                    
    137     (1,14,7)              0.0000000      SURF                                    
    138     (1,14,8)              0.0000000      SURF                                    
    139     (1,14,9)              0.0000000      SURF                                    
    140     (1,14,10)             0.0000000      SURF                                    
    141     (1,15,1)              0.0000000      SURF                                    
    142     (1,15,2)              0.0000000      SURF                                    
    143     (1,15,3)              0.0000000      SURF                                    
    144     (1,15,4)              0.0000000      SURF                                    
    145     (1,15,5)              0.0000000      SURF                                    
    146     (1,15,6)              0.0000000      SURF                                    
    147     (1,15,7)              0.0000000      SURF                                    
    148     (1,15,8)              0.0000000      SURF                                    
    149     (1,15,9)              0.0000000      SURF                                    
    150     (1,15,10)             0.0000000      SURF                                    
 ----------------------------------------------------------------------------------------




 API PACKAGE (MAR) FLOW RATES   PERIOD      2   STEP       72
 -----------------------------------------------
   NUMBER   CELLID                    RATE      
 -----------------------------------------------
     1      (1,6,5)               35.681548     
     2      (1,6,6)               35.681548     
     3      (1,6,7)               35.681548     
     4      (1,10,5)              33.183156     
     5      (1,10,6)              33.183156     
     6      (1,10,7)              33.183156     
 -----------------------------------------------



1
  HEAD IN LAYER   1 AT END OF TIME STEP  72 IN STRESS PERIOD    2
  ---------------------------------------------------------------------------

            1           2           3           4           5           6           7           8           9          10
 ........................................................................................................................
   1   1.1570E-02  1.6831E-02  2.6923E-02  3.9937E-02  5.1514E-02  5.6197E-02  5.1989E-02  4.1268E-02  2.9994E-02  2.3161E-02
   2   1.6648E-02  2.5003E-02  4.1645E-02  6.4309E-02  8.5580E-02  9.4021E-02  8.6233E-02  6.6164E-02  4.6016E-02  3.4274E-02
   3   2.5332E-02  3.9802E-02  7.0397E-02  0.1160      0.1630      0.1805      0.1639      0.1187      7.6932E-02  5.4203E-02
   4   3.2904E-02  5.4823E-02  0.1058      0.1938      0.3020      0.3352      0.3031      0.1972      0.1141      7.3897E-02
   5   2.9945E-02  5.4104E-02  0.1212      0.2738      0.5403      0.5823      0.5414      0.2767      0.1286      7.1661E-02
   6   6.2536E-03  1.3040E-02  5.2936E-02  0.2415      0.9996      0.9220       1.000      0.2424      5.4488E-02  1.5886E-02
   7  -3.4182E-02 -7.5816E-02 -0.1870     -0.4323     -0.9491      -2.155     -0.9495     -0.4343     -0.1946     -9.9612E-02
   8  -5.6543E-02 -0.1284     -0.3442     -0.9374      -2.696      -9.246      -2.697     -0.9412     -0.3569     -0.1673    
   9  -3.6302E-02 -7.8422E-02 -0.1911     -0.4415     -0.9724      -2.183     -0.9729     -0.4438     -0.1993     -0.1032    
  10   2.5830E-03  8.4190E-03  4.4988E-02  0.2200      0.9264      0.8394      0.9266      0.2204      4.5544E-02  9.6070E-03
  11   2.5669E-02  4.8914E-02  0.1139      0.2608      0.5147      0.5532      0.5155      0.2632      0.1200      6.4537E-02
  12   2.8868E-02  4.9958E-02  9.9430E-02  0.1852      0.2901      0.3221      0.2910      0.1879      0.1066      6.7180E-02
  13   2.2057E-02  3.5807E-02  6.5188E-02  0.1093      0.1550      0.1720      0.1558      0.1116      7.0822E-02  4.8676E-02
  14   1.4207E-02  2.1981E-02  3.7639E-02  5.9215E-02  7.9617E-02  8.7701E-02  8.0135E-02  6.0732E-02  4.1338E-02  3.0091E-02
  15   9.6509E-03  1.4428E-02  2.3692E-02  3.5786E-02  4.6637E-02  5.1022E-02  4.7008E-02  3.6853E-02  2.6235E-02  1.9835E-02

 HEAD WILL BE SAVED ON UNIT 1100 AT END OF TIME STEP   72, STRESS PERIOD    2


  VOLUME BUDGET FOR ENTIRE MODEL AT END OF TIME STEP   72, STRESS PERIOD   2
  ---------------------------------------------------------------------------------------------------

     CUMULATIVE VOLUME      L**3       RATES FOR THIS TIME STEP      L**3/T          PACKAGE NAME    
     ------------------                 ------------------------                     ----------------

           IN:                                      IN:
           ---                                      ---
              STO-SS =          24.0388                STO-SS =       9.3881E-03     STORAGE                          
              STO-SY =       59593.6386                STO-SY =          19.5823     STORAGE                          
                 WEL =           0.0000                   WEL =           0.0000     WEL-1                            
                 DRN =           0.0000                   DRN =           0.0000     DRN-0                            
                 API =      147166.6238                   API =         206.5941     MAR                              
                 CHD =       2.0279E-08                   CHD =           0.0000     CHD_0                            

            TOTAL IN =      206784.3012              TOTAL IN =         226.1858

          OUT:                                     OUT:
          ----                                     ----
              STO-SS =          20.5005                STO-SS =       9.9064E-03     STORAGE                          
              STO-SY =       40028.3704                STO-SY =          19.5818     STORAGE                          
                 WEL =      166735.4300                   WEL =         206.5941     WEL-1                            
                 DRN =       2.4117E-04                   DRN =       3.2116E-07     DRN-0                            
                 API =           0.0000                   API =           0.0000     MAR                              
                 CHD =       2.0705E-08                   CHD =           0.0000     CHD_0                            

           TOTAL OUT =      206784.3012             TOTAL OUT =         226.1858

            IN - OUT =      -1.0781E-06              IN - OUT =       8.1994E-10

 PERCENT DISCREPANCY =          -0.00     PERCENT DISCREPANCY =           0.00




         TIME SUMMARY AT END OF TIME STEP   72 IN STRESS PERIOD    2
                    SECONDS     MINUTES      HOURS       DAYS        YEARS
                    -----------------------------------------------------------
   TIME STEP LENGTH 8.64000E+05  14400.      240.00      10.000     2.73785E-02
 STRESS PERIOD TIME 6.22080E+07 1.03680E+06  17280.      720.00      1.9713    
         TOTAL TIME 6.22944E+07 1.03824E+06  17304.      721.00      1.9740    


end timestep


start timestep kper="2" kstp="73" mode="normal"

 UBDSV1 SAVING           STO-SS ON UNIT   1099 AT TIME STEP     73, STRESS PERIOD      2
 UBDSV1 SAVING           STO-SY ON UNIT   1099 AT TIME STEP     73, STRESS PERIOD      2
 UBDSV1 SAVING     FLOW-JA-FACE ON UNIT   1099 AT TIME STEP     73, STRESS PERIOD      2
 UBDSV06 SAVING       DATA-SPDIS IN MODEL GWF              PACKAGE NPF             CONNECTED TO MODEL GWF              PACKAGE NPF              ON UNIT   1099 AT TIME STEP     73, STRESS PERIOD      2
 UBDSV06 SAVING              WEL IN MODEL GWF              PACKAGE GWF             CONNECTED TO MODEL GWF              PACKAGE WEL-1            ON UNIT   1099 AT TIME STEP     73, STRESS PERIOD      2
 UBDSV06 SAVING              DRN IN MODEL GWF              PACKAGE GWF             CONNECTED TO MODEL GWF              PACKAGE DRN-0            ON UNIT   1099 AT TIME STEP     73, STRESS PERIOD      2
 UBDSV06 SAVING              API IN MODEL GWF              PACKAGE GWF             CONNECTED TO MODEL GWF              PACKAGE MAR              ON UNIT   1099 AT TIME STEP     73, STRESS PERIOD      2
 UBDSV06 SAVING              CHD IN MODEL GWF              PACKAGE GWF             CONNECTED TO MODEL GWF              PACKAGE CHD_0            ON UNIT   1099 AT TIME STEP     73, STRESS PERIOD      2

    CALCULATED INTERCELL FLOW FOR PERIOD 2 STEP 73
(1,1,1): (1,1,2) 5.403503E-02 (1,2,1) 5.164500E-02
(1,1,2): (1,1,1) -5.403503E-02 (1,1,3) 0.103530 (1,2,2) 8.286045E-02
(1,1,3): (1,1,2) -0.103530 (1,1,4) 0.133348 (1,2,3) 0.149053
(1,1,4): (1,1,3) -0.133348 (1,1,5) 0.118533 (1,2,4) 0.246863
(1,1,5): (1,1,4) -0.118533 (1,1,6) 4.800824E-02 (1,2,5) 0.345489
(1,1,6): (1,1,5) -4.800824E-02 (1,1,7) -4.293771E-02 (1,2,6) 0.383861
(1,1,7): (1,1,6) 4.293771E-02 (1,1,8) -0.109494 (1,2,7) 0.347360
(1,1,8): (1,1,7) 0.109494 (1,1,9) -0.115174 (1,2,8) 0.252301
(1,1,9): (1,1,8) 0.115174 (1,1,10) -6.980361E-02 (1,2,9) 0.162391
(1,1,10): (1,1,9) 6.980361E-02 (1,2,10) 0.112795
(1,2,1): (1,1,1) -5.164500E-02 (1,2,2) 8.525123E-02 (1,3,1) 8.770505E-02
(1,2,2): (1,1,2) -8.286045E-02 (1,2,1) -8.525123E-02 (1,2,3) 0.169736 (1,3,2) 0.149262
(1,2,3): (1,1,3) -0.149053 (1,2,2) -0.169736 (1,2,4) 0.231142 (1,3,3) 0.290380
(1,2,4): (1,1,4) -0.246863 (1,2,3) -0.231142 (1,2,5) 0.217035 (1,3,4) 0.523641
(1,2,5): (1,1,5) -0.345489 (1,2,4) -0.217035 (1,2,6) 8.626947E-02 (1,3,5) 0.788064
(1,2,6): (1,1,6) -0.383861 (1,2,5) -8.626947E-02 (1,2,7) -7.933037E-02 (1,3,6) 0.882081
(1,2,7): (1,1,7) -0.347360 (1,2,6) 7.933037E-02 (1,2,8) -0.204420 (1,3,7) 0.791072
(1,2,8): (1,1,8) -0.252301 (1,2,7) 0.204420 (1,2,9) -0.205043 (1,3,8) 0.532459
(1,2,9): (1,1,9) -0.162391 (1,2,8) 0.205043 (1,2,10) -0.119378 (1,3,9) 0.312549
(1,2,10): (1,1,10) -0.112795 (1,2,9) 0.119378 (1,3,10) 0.201277
(1,3,1): (1,2,1) -8.770505E-02 (1,3,2) 0.146807 (1,4,1) 7.491209E-02
(1,3,2): (1,2,2) -0.149262 (1,3,1) -0.146807 (1,3,3) 0.310883 (1,4,2) 0.149518
(1,3,3): (1,2,3) -0.290380 (1,3,2) -0.310883 (1,3,4) 0.464269 (1,4,3) 0.355764
(1,3,4): (1,2,4) -0.523641 (1,3,3) -0.464269 (1,3,5) 0.480678 (1,4,4) 0.791777
(1,3,5): (1,2,5) -0.788064 (1,3,4) -0.480678 (1,3,6) 0.179658 (1,4,5) 1.43056
(1,3,6): (1,2,6) -0.882081 (1,3,5) -0.179658 (1,3,7) -0.169723 (1,4,6) 1.59789
(1,3,7): (1,2,7) -0.791072 (1,3,6) 0.169723 (1,3,8) -0.462218 (1,4,7) 1.43283
(1,3,8): (1,2,8) -0.532459 (1,3,7) 0.462218 (1,3,9) -0.424723 (1,4,8) 0.798449
(1,3,9): (1,2,9) -0.312549 (1,3,8) 0.424723 (1,3,10) -0.230561 (1,4,9) 0.373489
(1,3,10): (1,2,10) -0.201277 (1,3,9) 0.230561 (1,4,10) 0.196206
(1,4,1): (1,3,1) -7.491209E-02 (1,4,2) 0.221466 (1,5,1) -3.373174E-02
(1,4,2): (1,3,2) -0.149518 (1,4,1) -0.221466 (1,4,3) 0.517454 (1,5,2) -1.253510E-02
(1,4,3): (1,3,3) -0.355764 (1,4,2) -0.517454 (1,4,4) 0.900735 (1,5,3) 0.149159
(1,4,4): (1,3,4) -0.791777 (1,4,3) -0.900735 (1,4,5) 1.11760 (1,5,4) 0.813481
(1,4,5): (1,3,5) -1.43056 (1,4,4) -1.11760 (1,4,6) 0.345085 (1,5,5) 2.50548
(1,4,6): (1,3,6) -1.59789 (1,4,5) -0.345085 (1,4,7) -0.332887 (1,5,6) 2.60860
(1,4,7): (1,3,7) -1.43283 (1,4,6) 0.332887 (1,4,8) -1.09460 (1,5,7) 2.50411
(1,4,8): (1,3,8) -0.798449 (1,4,7) 1.09460 (1,4,9) -0.849891 (1,5,8) 0.809046
(1,4,9): (1,3,9) -0.373489 (1,4,8) 0.849891 (1,4,10) -0.407904 (1,5,9) 0.138414
(1,4,10): (1,3,10) -0.196206 (1,4,9) 0.407904 (1,5,10) -3.000010E-02
(1,5,1): (1,4,1) 3.373174E-02 (1,5,2) 0.242706 (1,6,1) -0.244308
(1,5,2): (1,4,2) 1.253510E-02 (1,5,1) -0.242706 (1,5,3) 0.679985 (1,6,2) -0.421513
(1,5,3): (1,4,3) -0.149159 (1,5,2) -0.679985 (1,5,4) 1.56980 (1,6,3) -0.702708
(1,5,4): (1,4,4) -0.813481 (1,5,3) -1.56980 (1,5,5) 2.81424 (1,6,4) -0.344270
(1,5,5): (1,4,5) -2.50548 (1,5,4) -2.81424 (1,5,6) 0.446410 (1,6,5) 5.04257
(1,5,6): (1,4,6) -2.60860 (1,5,5) -0.446410 (1,5,7) -0.435541 (1,6,6) 3.70273
(1,5,7): (1,4,7) -2.50411 (1,5,6) 0.435541 (1,5,8) -2.79404 (1,6,7) 5.03557
(1,5,8): (1,4,8) -0.809046 (1,5,7) 2.79404 (1,5,9) -1.52506 (1,6,8) -0.366159
(1,5,9): (1,4,9) -0.138414 (1,5,8) 1.52506 (1,5,10) -0.577030 (1,6,9) -0.763524
(1,5,10): (1,4,10) 3.000010E-02 (1,5,9) 0.577030 (1,6,10) -0.573860
(1,6,1): (1,5,1) 0.244308 (1,6,2) 6.581384E-02 (1,7,1) -0.411205
(1,6,2): (1,5,2) 0.421513 (1,6,1) -6.581384E-02 (1,6,3) 0.398852 (1,7,2) -0.898309
(1,6,3): (1,5,3) 0.702708 (1,6,2) -0.398852 (1,6,4) 1.93252 (1,7,3) -2.42347
(1,6,4): (1,5,4) 0.344270 (1,6,3) -1.93252 (1,6,5) 8.34778 (1,7,4) -6.91507
(1,6,5): (1,5,5) -5.04257 (1,6,4) -8.34778 (1,6,6) -0.849687 (1,7,5) -21.4536
(1,6,6): (1,5,6) -3.70273 (1,6,5) 0.849687 (1,6,7) 0.853838 (1,7,6) -33.6226
(1,6,7): (1,5,7) -5.03557 (1,6,6) -0.853838 (1,6,8) -8.34284 (1,7,7) -21.4634
(1,6,8): (1,5,8) 0.366159 (1,6,7) 8.34284 (1,6,9) -1.92690 (1,7,8) -6.94655
(1,6,9): (1,5,9) 0.763524 (1,6,8) 1.92690 (1,6,10) -0.387704 (1,7,9) -2.51754
(1,6,10): (1,5,10) 0.573860 (1,6,9) 0.387704 (1,7,10) -1.16875
(1,7,1): (1,6,1) 0.411205 (1,7,2) -0.419015 (1,8,1) -0.225620
(1,7,2): (1,6,2) 0.898309 (1,7,1) 0.419015 (1,7,3) -1.10829 (1,8,2) -0.525684
(1,7,3): (1,6,3) 2.42347 (1,7,2) 1.10829 (1,7,4) -2.40809 (1,8,3) -1.54841
(1,7,4): (1,6,4) 6.91507 (1,7,3) 2.40809 (1,7,5) -4.93793 (1,8,4) -4.83933
(1,7,5): (1,6,5) 21.4536 (1,7,4) 4.93793 (1,7,6) -10.9059 (1,8,5) -15.8164
(1,7,6): (1,6,6) 33.6226 (1,7,5) 10.9059 (1,7,7) 10.9013 (1,8,6) -55.6195
(1,7,7): (1,6,7) 21.4634 (1,7,6) -10.9013 (1,7,8) 4.92038 (1,8,7) -15.8210
(1,7,8): (1,6,8) 6.94655 (1,7,7) -4.92038 (1,7,9) 2.34986 (1,8,8) -4.85545
(1,7,9): (1,6,9) 2.51754 (1,7,8) -2.34986 (1,7,10) 0.941818 (1,8,9) -1.59817
(1,7,10): (1,6,10) 1.16875 (1,7,9) -0.941818 (1,8,10) -0.675019
(1,8,1): (1,7,1) 0.225620 (1,8,2) -0.719668 (1,9,1) 0.204472
(1,8,2): (1,7,2) 0.525684 (1,8,1) 0.719668 (1,8,3) -2.13718 (1,9,2) 0.499412
(1,8,3): (1,7,3) 1.54841 (1,8,2) 2.13718 (1,8,4) -5.72951 (1,9,3) 1.50552
(1,8,4): (1,7,4) 4.83933 (1,8,3) 5.72951 (1,8,5) -15.9278 (1,9,4) 4.74007
(1,8,5): (1,7,5) 15.8164 (1,8,4) 15.9278 (1,8,6) -47.8098 (1,9,5) 15.5482
(1,8,6): (1,7,6) 55.6195 (1,8,5) 47.8098 (1,8,7) 47.7953 (1,9,6) 55.1719
(1,8,7): (1,7,7) 15.8210 (1,8,6) -47.7953 (1,8,8) 15.8944 (1,9,7) 15.5513
(1,8,8): (1,7,8) 4.85545 (1,8,7) -15.8944 (1,8,9) 5.63357 (1,9,8) 4.75298
(1,8,9): (1,7,9) 1.59817 (1,8,8) -5.63357 (1,8,10) 1.86753 (1,9,9) 1.54943
(1,8,10): (1,7,10) 0.675019 (1,8,9) -1.86753 (1,9,10) 0.639273
(1,9,1): (1,8,1) -0.204472 (1,9,2) -0.424072 (1,10,1) 0.395496
(1,9,2): (1,8,2) -0.499412 (1,9,1) 0.424072 (1,9,3) -1.12456 (1,10,2) 0.877445
(1,9,3): (1,8,3) -1.50552 (1,9,2) 1.12456 (1,9,4) -2.46158 (1,10,3) 2.38152
(1,9,4): (1,8,4) -4.74007 (1,9,3) 2.46158 (1,9,5) -5.07647 (1,10,4) 6.76830
(1,9,5): (1,8,5) -15.5482 (1,9,4) 5.07647 (1,9,6) -10.9223 (1,10,5) 20.7362
(1,9,6): (1,8,6) -55.1719 (1,9,5) 10.9223 (1,9,7) 10.9163 (1,10,6) 32.7398
(1,9,7): (1,8,7) -15.5513 (1,9,6) -10.9163 (1,9,8) 5.05700 (1,10,7) 20.7448
(1,9,8): (1,8,8) -4.75298 (1,9,7) -5.05700 (1,9,9) 2.40053 (1,10,8) 6.79740
(1,9,9): (1,8,9) -1.54943 (1,9,8) -2.40053 (1,9,10) 0.954396 (1,10,9) 2.47123
(1,9,10): (1,8,10) -0.639273 (1,9,9) -0.954396 (1,10,10) 1.14056
(1,10,1): (1,9,1) -0.395496 (1,10,2) 5.573670E-02 (1,11,1) 0.238110
(1,10,2): (1,9,2) -0.877445 (1,10,1) -5.573670E-02 (1,10,3) 0.362327 (1,11,2) 0.415865
(1,10,3): (1,9,3) -2.38152 (1,10,2) -0.362327 (1,10,4) 1.78062 (1,11,3) 0.709493
(1,10,4): (1,9,4) -6.76830 (1,10,3) -1.78062 (1,10,5) 7.69824 (1,11,4) 0.437579
(1,10,5): (1,9,5) -20.7362 (1,10,4) -7.69824 (1,10,6) -0.952794 (1,11,5) -4.46490
(1,10,6): (1,9,6) -32.7398 (1,10,5) 0.952794 (1,10,7) 0.954706 (1,11,6) -3.06756
(1,10,7): (1,9,7) -20.7448 (1,10,6) -0.954706 (1,10,8) -7.69656 (1,11,7) -4.45832
(1,10,8): (1,9,8) -6.79740 (1,10,7) 7.69656 (1,10,9) -1.77983 (1,11,8) 0.458481
(1,10,9): (1,9,9) -2.47123 (1,10,8) 1.77983 (1,10,10) -0.357783 (1,11,9) 0.768450
(1,10,10): (1,9,10) -1.14056 (1,10,9) 0.357783 (1,11,10) 0.565280
(1,11,1): (1,10,1) -0.238110 (1,11,2) 0.233171 (1,12,1) 3.602001E-02
(1,11,2): (1,10,2) -0.415865 (1,11,1) -0.233171 (1,11,3) 0.655803 (1,12,2) 1.596447E-02
(1,11,3): (1,10,3) -0.709493 (1,11,2) -0.655803 (1,11,4) 1.50584 (1,12,3) -0.137568
(1,11,4): (1,10,4) -0.437579 (1,11,3) -1.50584 (1,11,5) 2.66395 (1,12,4) -0.763973
(1,11,5): (1,10,5) 4.46490 (1,11,4) -2.66395 (1,11,6) 0.405616 (1,12,5) -2.34347
(1,11,6): (1,10,6) 3.06756 (1,11,5) -0.405616 (1,11,7) -0.397361 (1,12,6) -2.41845
(1,11,7): (1,10,7) 4.45832 (1,11,6) 0.397361 (1,11,8) -2.64750 (1,12,7) -2.34192
(1,11,8): (1,10,8) -0.458481 (1,11,7) 2.64750 (1,11,9) -1.46679 (1,12,8) -0.759180
(1,11,9): (1,10,9) -0.768450 (1,11,8) 1.46679 (1,11,10) -0.560546 (1,12,9) -0.126260
(1,11,10): (1,10,10) -0.565280 (1,11,9) 0.560546 (1,12,10) 3.422277E-02
(1,12,1): (1,11,1) -3.602001E-02 (1,12,2) 0.213076 (1,13,1) -6.741600E-02
(1,12,2): (1,11,2) -1.596447E-02 (1,12,1) -0.213076 (1,12,3) 0.501495 (1,13,2) -0.140800
(1,12,3): (1,11,3) 0.137568 (1,12,2) -0.501495 (1,12,4) 0.875032 (1,13,3) -0.343411
(1,12,4): (1,11,4) 0.763973 (1,12,3) -0.875032 (1,12,5) 1.07993 (1,13,4) -0.768497
(1,12,5): (1,11,5) 2.34347 (1,12,4) -1.07993 (1,12,6) 0.331838 (1,13,5) -1.38362
(1,12,6): (1,11,6) 2.41845 (1,12,5) -0.331838 (1,12,7) -0.322067 (1,13,6) -1.54322
(1,12,7): (1,11,7) 2.34192 (1,12,6) 0.322067 (1,12,8) -1.06044 (1,13,7) -1.38539
(1,12,8): (1,11,8) 0.759180 (1,12,7) 1.06044 (1,12,9) -0.829630 (1,13,8) -0.774013
(1,12,9): (1,11,9) 0.126260 (1,12,8) 0.829630 (1,12,10) -0.399394 (1,13,9) -0.359053
(1,12,10): (1,11,10) -3.422277E-02 (1,12,9) 0.399394 (1,13,10) -0.184285
(1,13,1): (1,12,1) 6.741600E-02 (1,13,2) 0.139640 (1,14,1) -7.943387E-02
(1,13,2): (1,12,2) 0.140800 (1,13,1) -0.139640 (1,13,3) 0.298572 (1,14,2) -0.139614
(1,13,3): (1,12,3) 0.343411 (1,13,2) -0.298572 (1,13,4) 0.449512 (1,14,3) -0.278267
(1,13,4): (1,12,4) 0.768497 (1,13,3) -0.449512 (1,13,5) 0.466553 (1,14,4) -0.507765
(1,13,5): (1,12,5) 1.38362 (1,13,4) -0.466553 (1,13,6) 0.174008 (1,14,5) -0.766945
(1,13,6): (1,12,6) 1.54322 (1,13,5) -0.174008 (1,13,7) -0.165999 (1,14,6) -0.858972
(1,13,7): (1,12,7) 1.38539 (1,13,6) 0.165999 (1,13,8) -0.450921 (1,14,7) -0.769434
(1,13,8): (1,12,8) 0.774013 (1,13,7) 0.450921 (1,13,9) -0.414449 (1,14,8) -0.515341
(1,13,9): (1,12,9) 0.359053 (1,13,8) 0.414449 (1,13,10) -0.224557 (1,14,9) -0.298118
(1,13,10): (1,12,10) 0.184285 (1,13,9) 0.224557 (1,14,10) -0.187925
(1,14,1): (1,13,1) 7.943387E-02 (1,14,2) 7.945953E-02 (1,15,1) -4.646790E-02
(1,14,2): (1,13,2) 0.139614 (1,14,1) -7.945953E-02 (1,14,3) 0.159891 (1,15,2) -7.672784E-02
(1,14,3): (1,13,3) 0.278267 (1,14,2) -0.159891 (1,14,4) 0.220145 (1,15,3) -0.141360
(1,14,4): (1,13,4) 0.507765 (1,14,3) -0.220145 (1,14,5) 0.208120 (1,15,4) -0.237412
(1,14,5): (1,13,5) 0.766945 (1,14,4) -0.208120 (1,14,6) 8.258141E-02 (1,15,5) -0.334426
(1,14,6): (1,13,6) 0.858972 (1,14,5) -8.258141E-02 (1,14,7) -7.705160E-02 (1,15,6) -0.372138
(1,14,7): (1,13,7) 0.769434 (1,14,6) 7.705160E-02 (1,14,8) -0.197605 (1,15,7) -0.335984
(1,14,8): (1,13,8) 0.515341 (1,14,7) 0.197605 (1,14,9) -0.197439 (1,15,8) -0.242088
(1,14,9): (1,13,9) 0.298118 (1,14,8) 0.197439 (1,14,10) -0.114444 (1,15,9) -0.153247
(1,14,10): (1,13,10) 0.187925 (1,14,9) 0.114444 (1,15,10) -0.104290
(1,15,1): (1,14,1) 4.646790E-02 (1,15,2) 4.919876E-02
(1,15,2): (1,14,2) 7.672784E-02 (1,15,1) -4.919876E-02 (1,15,3) 9.524704E-02
(1,15,3): (1,14,3) 0.141360 (1,15,2) -9.524704E-02 (1,15,4) 0.124109
(1,15,4): (1,14,4) 0.237412 (1,15,3) -0.124109 (1,15,5) 0.111226
(1,15,5): (1,14,5) 0.334426 (1,15,4) -0.111226 (1,15,6) 4.497576E-02
(1,15,6): (1,14,6) 0.372138 (1,15,5) -4.497576E-02 (1,15,7) -4.100131E-02
(1,15,7): (1,14,7) 0.335984 (1,15,6) 4.100131E-02 (1,15,8) -0.103837
(1,15,8): (1,14,8) 0.242088 (1,15,7) 0.103837 (1,15,9) -0.108636
(1,15,9): (1,14,9) 0.153247 (1,15,8) 0.108636 (1,15,10) -6.550587E-02
(1,15,10): (1,14,10) 0.104290 (1,15,9) 6.550587E-02

 WEL PACKAGE (WEL-1) FLOW RATES   PERIOD      2   STEP       73
 ----------------------------------------------------------------------------------------
   NUMBER   CELLID                    RATE       NAME                                    
 ----------------------------------------------------------------------------------------
     1      (1,8,6)              -206.47288      WEL                                     
 ----------------------------------------------------------------------------------------




 DRN PACKAGE (DRN-0) FLOW RATES   PERIOD      2   STEP       73
 ----------------------------------------------------------------------------------------
   NUMBER   CELLID                    RATE       NAME                                    
 ----------------------------------------------------------------------------------------
     1      (1,1,1)               0.0000000      SURF                                    
     2      (1,1,2)               0.0000000      SURF                                    
     3      (1,1,3)               0.0000000      SURF                                    
     4      (1,1,4)               0.0000000      SURF                                    
     5      (1,1,5)               0.0000000      SURF                                    
     6      (1,1,6)               0.0000000      SURF                                    
     7      (1,1,7)               0.0000000      SURF                                    
     8      (1,1,8)               0.0000000      SURF                                    
     9      (1,1,9)               0.0000000      SURF                                    
     10     (1,1,10)              0.0000000      SURF                                    
     11     (1,2,1)               0.0000000      SURF                                    
     12     (1,2,2)               0.0000000      SURF                                    
     13     (1,2,3)               0.0000000      SURF                                    
     14     (1,2,4)               0.0000000      SURF                                    
     15     (1,2,5)               0.0000000      SURF                                    
     16     (1,2,6)               0.0000000      SURF                                    
     17     (1,2,7)               0.0000000      SURF                                    
     18     (1,2,8)               0.0000000      SURF                                    
     19     (1,2,9)               0.0000000      SURF                                    
     20     (1,2,10)              0.0000000      SURF                                    
     21     (1,3,1)               0.0000000      SURF                                    
     22     (1,3,2)               0.0000000      SURF                                    
     23     (1,3,3)               0.0000000      SURF                                    
     24     (1,3,4)               0.0000000      SURF                                    
     25     (1,3,5)               0.0000000      SURF                                    
     26     (1,3,6)               0.0000000      SURF                                    
     27     (1,3,7)               0.0000000      SURF                                    
     28     (1,3,8)               0.0000000      SURF                                    
     29     (1,3,9)               0.0000000      SURF                                    
     30     (1,3,10)              0.0000000      SURF                                    
     31     (1,4,1)               0.0000000      SURF                                    
     32     (1,4,2)               0.0000000      SURF                                    
     33     (1,4,3)               0.0000000      SURF                                    
     34     (1,4,4)               0.0000000      SURF                                    
     35     (1,4,5)               0.0000000      SURF                                    
     36     (1,4,6)               0.0000000      SURF                                    
     37     (1,4,7)               0.0000000      SURF                                    
     38     (1,4,8)               0.0000000      SURF                                    
     39     (1,4,9)               0.0000000      SURF                                    
     40     (1,4,10)              0.0000000      SURF                                    
     41     (1,5,1)               0.0000000      SURF                                    
     42     (1,5,2)               0.0000000      SURF                                    
     43     (1,5,3)               0.0000000      SURF                                    
     44     (1,5,4)               0.0000000      SURF                                    
     45     (1,5,5)               0.0000000      SURF                                    
     46     (1,5,6)               0.0000000      SURF                                    
     47     (1,5,7)               0.0000000      SURF                                    
     48     (1,5,8)               0.0000000      SURF                                    
     49     (1,5,9)               0.0000000      SURF                                    
     50     (1,5,10)              0.0000000      SURF                                    
     51     (1,6,1)               0.0000000      SURF                                    
     52     (1,6,2)               0.0000000      SURF                                    
     53     (1,6,3)               0.0000000      SURF                                    
     54     (1,6,4)               0.0000000      SURF                                    
     55     (1,6,5)               0.0000000      SURF                                    
     56     (1,6,6)               0.0000000      SURF                                    
     57     (1,6,7)              -3.20258550E-07 SURF                                    
     58     (1,6,8)               0.0000000      SURF                                    
     59     (1,6,9)               0.0000000      SURF                                    
     60     (1,6,10)              0.0000000      SURF                                    
     61     (1,7,1)               0.0000000      SURF                                    
     62     (1,7,2)               0.0000000      SURF                                    
     63     (1,7,3)               0.0000000      SURF                                    
     64     (1,7,4)               0.0000000      SURF                                    
     65     (1,7,5)               0.0000000      SURF                                    
     66     (1,7,6)               0.0000000      SURF                                    
     67     (1,7,7)               0.0000000      SURF                                    
     68     (1,7,8)               0.0000000      SURF                                    
     69     (1,7,9)               0.0000000      SURF                                    
     70     (1,7,10)              0.0000000      SURF                                    
     71     (1,8,1)               0.0000000      SURF                                    
     72     (1,8,2)               0.0000000      SURF                                    
     73     (1,8,3)               0.0000000      SURF                                    
     74     (1,8,4)               0.0000000      SURF                                    
     75     (1,8,5)               0.0000000      SURF                                    
     76     (1,8,6)               0.0000000      SURF                                    
     77     (1,8,7)               0.0000000      SURF                                    
     78     (1,8,8)               0.0000000      SURF                                    
     79     (1,8,9)               0.0000000      SURF                                    
     80     (1,8,10)              0.0000000      SURF                                    
     81     (1,9,1)               0.0000000      SURF                                    
     82     (1,9,2)               0.0000000      SURF                                    
     83     (1,9,3)               0.0000000      SURF                                    
     84     (1,9,4)               0.0000000      SURF                                    
     85     (1,9,5)               0.0000000      SURF                                    
     86     (1,9,6)               0.0000000      SURF                                    
     87     (1,9,7)               0.0000000      SURF                                    
     88     (1,9,8)               0.0000000      SURF                                    
     89     (1,9,9)               0.0000000      SURF                                    
     90     (1,9,10)              0.0000000      SURF                                    
     91     (1,10,1)              0.0000000      SURF                                    
     92     (1,10,2)              0.0000000      SURF                                    
     93     (1,10,3)              0.0000000      SURF                                    
     94     (1,10,4)              0.0000000      SURF                                    
     95     (1,10,5)              0.0000000      SURF                                    
     96     (1,10,6)              0.0000000      SURF                                    
     97     (1,10,7)              0.0000000      SURF                                    
     98     (1,10,8)              0.0000000      SURF                                    
     99     (1,10,9)              0.0000000      SURF                                    
    100     (1,10,10)             0.0000000      SURF                                    
    101     (1,11,1)              0.0000000      SURF                                    
    102     (1,11,2)              0.0000000      SURF                                    
    103     (1,11,3)              0.0000000      SURF                                    
    104     (1,11,4)              0.0000000      SURF                                    
    105     (1,11,5)              0.0000000      SURF                                    
    106     (1,11,6)              0.0000000      SURF                                    
    107     (1,11,7)              0.0000000      SURF                                    
    108     (1,11,8)              0.0000000      SURF                                    
    109     (1,11,9)              0.0000000      SURF                                    
    110     (1,11,10)             0.0000000      SURF                                    
    111     (1,12,1)              0.0000000      SURF                                    
    112     (1,12,2)              0.0000000      SURF                                    
    113     (1,12,3)              0.0000000      SURF                                    
    114     (1,12,4)              0.0000000      SURF                                    
    115     (1,12,5)              0.0000000      SURF                                    
    116     (1,12,6)              0.0000000      SURF                                    
    117     (1,12,7)              0.0000000      SURF                                    
    118     (1,12,8)              0.0000000      SURF                                    
    119     (1,12,9)              0.0000000      SURF                                    
    120     (1,12,10)             0.0000000      SURF                                    
    121     (1,13,1)              0.0000000      SURF                                    
    122     (1,13,2)              0.0000000      SURF                                    
    123     (1,13,3)              0.0000000      SURF                                    
    124     (1,13,4)              0.0000000      SURF                                    
    125     (1,13,5)              0.0000000      SURF                                    
    126     (1,13,6)              0.0000000      SURF                                    
    127     (1,13,7)              0.0000000      SURF                                    
    128     (1,13,8)              0.0000000      SURF                                    
    129     (1,13,9)              0.0000000      SURF                                    
    130     (1,13,10)             0.0000000      SURF                                    
    131     (1,14,1)              0.0000000      SURF                                    
    132     (1,14,2)              0.0000000      SURF                                    
    133     (1,14,3)              0.0000000      SURF                                    
    134     (1,14,4)              0.0000000      SURF                                    
    135     (1,14,5)              0.0000000      SURF                                    
    136     (1,14,6)              0.0000000      SURF                                    
    137     (1,14,7)              0.0000000      SURF                                    
    138     (1,14,8)              0.0000000      SURF                                    
    139     (1,14,9)              0.0000000      SURF                                    
    140     (1,14,10)             0.0000000      SURF                                    
    141     (1,15,1)              0.0000000      SURF                                    
    142     (1,15,2)              0.0000000      SURF                                    
    143     (1,15,3)              0.0000000      SURF                                    
    144     (1,15,4)              0.0000000      SURF                                    
    145     (1,15,5)              0.0000000      SURF                                    
    146     (1,15,6)              0.0000000      SURF                                    
    147     (1,15,7)              0.0000000      SURF                                    
    148     (1,15,8)              0.0000000      SURF                                    
    149     (1,15,9)              0.0000000      SURF                                    
    150     (1,15,10)             0.0000000      SURF                                    
 ----------------------------------------------------------------------------------------




 API PACKAGE (MAR) FLOW RATES   PERIOD      2   STEP       73
 -----------------------------------------------
   NUMBER   CELLID                    RATE      
 -----------------------------------------------
     1      (1,6,5)               35.695635     
     2      (1,6,6)               35.695635     
     3      (1,6,7)               35.695635     
     4      (1,10,5)              33.128657     
     5      (1,10,6)              33.128657     
     6      (1,10,7)              33.128657     
 -----------------------------------------------



1
  HEAD IN LAYER   1 AT END OF TIME STEP  73 IN STRESS PERIOD    2
  ---------------------------------------------------------------------------

            1           2           3           4           5           6           7           8           9          10
 ........................................................................................................................
   1   1.2098E-02  1.7492E-02  2.7817E-02  4.1097E-02  5.2888E-02  5.7661E-02  5.3392E-02  4.2501E-02  3.1032E-02  2.4073E-02
   2   1.7254E-02  2.5757E-02  4.2659E-02  6.5622E-02  8.7138E-02  9.5683E-02  8.7825E-02  6.7561E-02  4.7195E-02  3.5313E-02
   3   2.6002E-02  4.0623E-02  7.1490E-02  0.1174      0.1647      0.1823      0.1656      0.1202      7.8207E-02  5.5330E-02
   4   3.3468E-02  5.5492E-02  0.1067      0.1950      0.3035      0.3369      0.3047      0.1985      0.1151      7.4805E-02
   5   3.0106E-02  5.4246E-02  0.1214      0.2742      0.5412      0.5834      0.5422      0.2772      0.1288      7.1827E-02
   6   5.7484E-03  1.2322E-02  5.2001E-02  0.2407      0.9996      0.9224       1.000      0.2416      5.3415E-02  1.4850E-02
   7  -3.5348E-02 -7.7399E-02 -0.1891     -0.4345     -0.9508      -2.156     -0.9512     -0.4367     -0.1970     -0.1019    
   8  -5.7991E-02 -0.1304     -0.3469     -0.9405      -2.699      -9.247      -2.700     -0.9444     -0.3600     -0.1700    
   9  -3.7466E-02 -8.0033E-02 -0.1934     -0.4444     -0.9757      -2.186     -0.9763     -0.4469     -0.2019     -0.1054    
  10   2.0750E-03  7.6444E-03  4.3719E-02  0.2180      0.9228      0.8355      0.9229      0.2183      4.4141E-02  8.5201E-03
  11   2.5825E-02  4.9028E-02  0.1139      0.2606      0.5140      0.5524      0.5148      0.2630      0.1201      6.4685E-02
  12   2.9416E-02  5.0616E-02  0.1003      0.1862      0.2911      0.3233      0.2921      0.1890      0.1076      6.8084E-02
  13   2.2694E-02  3.6607E-02  6.6268E-02  0.1107      0.1567      0.1738      0.1574      0.1131      7.2075E-02  4.9780E-02
  14   1.4769E-02  2.2697E-02  3.8624E-02  6.0506E-02  8.1151E-02  8.9336E-02  8.1699E-02  6.2099E-02  4.2477E-02  3.1081E-02
  15   1.0129E-02  1.5041E-02  2.4543E-02  3.6908E-02  4.7978E-02  5.2452E-02  4.8373E-02  3.8039E-02  2.7217E-02  2.0684E-02

 HEAD WILL BE SAVED ON UNIT 1100 AT END OF TIME STEP   73, STRESS PERIOD    2


  VOLUME BUDGET FOR ENTIRE MODEL AT END OF TIME STEP   73, STRESS PERIOD   2
  ---------------------------------------------------------------------------------------------------

     CUMULATIVE VOLUME      L**3       RATES FOR THIS TIME STEP      L**3/T          PACKAGE NAME    
     ------------------                 ------------------------                     ----------------

           IN:                                      IN:
           ---                                      ---
              STO-SS =          24.1316                STO-SS =       9.2747E-03     STORAGE                          
              STO-SY =       59786.9732                STO-SY =          19.3335     STORAGE                          
                 WEL =           0.0000                   WEL =           0.0000     WEL-1                            
                 DRN =           0.0000                   DRN =           0.0000     DRN-0                            
                 API =      149231.3525                   API =         206.4729     MAR                              
                 CHD =       2.0279E-08                   CHD =           0.0000     CHD_0                            

            TOTAL IN =      209042.4573              TOTAL IN =         225.8156

          OUT:                                     OUT:
          ----                                     ----
              STO-SS =          20.5983                STO-SS =       9.7805E-03     STORAGE                          
              STO-SY =       40221.7000                STO-SY =          19.3330     STORAGE                          
                 WEL =      168800.1588                   WEL =         206.4729     WEL-1                            
                 DRN =       2.4437E-04                   DRN =       3.2026E-07     DRN-0                            
                 API =           0.0000                   API =           0.0000     MAR                              
                 CHD =       2.0705E-08                   CHD =           0.0000     CHD_0                            

           TOTAL OUT =      209042.4573             TOTAL OUT =         225.8156

            IN - OUT =      -1.0698E-06              IN - OUT =       8.3034E-10

 PERCENT DISCREPANCY =          -0.00     PERCENT DISCREPANCY =           0.00




         TIME SUMMARY AT END OF TIME STEP   73 IN STRESS PERIOD    2
                    SECONDS     MINUTES      HOURS       DAYS        YEARS
                    -----------------------------------------------------------
   TIME STEP LENGTH 8.64000E+05  14400.      240.00      10.000     2.73785E-02
 STRESS PERIOD TIME 6.30720E+07 1.05120E+06  17520.      730.00      1.9986    
         TOTAL TIME 6.31584E+07 1.05264E+06  17544.      731.00      2.0014    


end timestep


start timestep kper="2" kstp="74" mode="normal"

 UBDSV1 SAVING           STO-SS ON UNIT   1099 AT TIME STEP     74, STRESS PERIOD      2
 UBDSV1 SAVING           STO-SY ON UNIT   1099 AT TIME STEP     74, STRESS PERIOD      2
 UBDSV1 SAVING     FLOW-JA-FACE ON UNIT   1099 AT TIME STEP     74, STRESS PERIOD      2
 UBDSV06 SAVING       DATA-SPDIS IN MODEL GWF              PACKAGE NPF             CONNECTED TO MODEL GWF              PACKAGE NPF              ON UNIT   1099 AT TIME STEP     74, STRESS PERIOD      2
 UBDSV06 SAVING              WEL IN MODEL GWF              PACKAGE GWF             CONNECTED TO MODEL GWF              PACKAGE WEL-1            ON UNIT   1099 AT TIME STEP     74, STRESS PERIOD      2
 UBDSV06 SAVING              DRN IN MODEL GWF              PACKAGE GWF             CONNECTED TO MODEL GWF              PACKAGE DRN-0            ON UNIT   1099 AT TIME STEP     74, STRESS PERIOD      2
 UBDSV06 SAVING              API IN MODEL GWF              PACKAGE GWF             CONNECTED TO MODEL GWF              PACKAGE MAR              ON UNIT   1099 AT TIME STEP     74, STRESS PERIOD      2
 UBDSV06 SAVING              CHD IN MODEL GWF              PACKAGE GWF             CONNECTED TO MODEL GWF              PACKAGE CHD_0            ON UNIT   1099 AT TIME STEP     74, STRESS PERIOD      2

    CALCULATED INTERCELL FLOW FOR PERIOD 2 STEP 74
(1,1,1): (1,1,2) 5.536408E-02 (1,2,1) 5.239122E-02
(1,1,2): (1,1,1) -5.536408E-02 (1,1,3) 0.105850 (1,2,2) 8.374278E-02
(1,1,3): (1,1,2) -0.105850 (1,1,4) 0.136007 (1,2,3) 0.150192
(1,1,4): (1,1,3) -0.136007 (1,1,5) 0.120684 (1,2,4) 0.248338
(1,1,5): (1,1,4) -0.120684 (1,1,6) 4.891220E-02 (1,2,5) 0.347284
(1,1,6): (1,1,5) -4.891220E-02 (1,1,7) -4.353761E-02 (1,2,6) 0.385805
(1,1,7): (1,1,6) 4.353761E-02 (1,1,8) -0.111196 (1,2,7) 0.349204
(1,1,8): (1,1,7) 0.111196 (1,1,9) -0.117105 (1,2,8) 0.253890
(1,1,9): (1,1,8) 0.117105 (1,1,10) -7.105111E-02 (1,2,9) 0.163733
(1,1,10): (1,1,9) 7.105111E-02 (1,2,10) 0.113999
(1,2,1): (1,1,1) -5.239122E-02 (1,2,2) 8.671657E-02 (1,3,1) 8.827215E-02
(1,2,2): (1,1,2) -8.374278E-02 (1,2,1) -8.671657E-02 (1,2,3) 0.172314 (1,3,2) 0.149858
(1,2,3): (1,1,3) -0.150192 (1,2,2) -0.172314 (1,2,4) 0.234139 (1,3,3) 0.291103
(1,2,4): (1,1,4) -0.248338 (1,2,3) -0.234139 (1,2,5) 0.219506 (1,3,4) 0.524678
(1,2,5): (1,1,5) -0.347284 (1,2,4) -0.219506 (1,2,6) 8.732106E-02 (1,3,5) 0.789537
(1,2,6): (1,1,6) -0.385805 (1,2,5) -8.732106E-02 (1,2,7) -8.002895E-02 (1,3,6) 0.883782
(1,2,7): (1,1,7) -0.349204 (1,2,6) 8.002895E-02 (1,2,8) -0.206377 (1,3,7) 0.792594
(1,2,8): (1,1,8) -0.253890 (1,2,7) 0.206377 (1,2,9) -0.207221 (1,3,8) 0.533597
(1,2,9): (1,1,9) -0.163733 (1,2,8) 0.207221 (1,2,10) -0.120764 (1,3,9) 0.313422
(1,2,10): (1,1,10) -0.113999 (1,2,9) 0.120764 (1,3,10) 0.202056
(1,3,1): (1,2,1) -8.827215E-02 (1,3,2) 0.148301 (1,4,1) 7.376882E-02
(1,3,2): (1,2,2) -0.149858 (1,3,1) -0.148301 (1,3,3) 0.313591 (1,4,2) 0.147919
(1,3,3): (1,2,3) -0.291103 (1,3,2) -0.313591 (1,3,4) 0.467585 (1,4,3) 0.353595
(1,3,4): (1,2,4) -0.524678 (1,3,3) -0.467585 (1,3,5) 0.483588 (1,4,4) 0.789455
(1,3,5): (1,2,5) -0.789537 (1,3,4) -0.483588 (1,3,6) 0.180937 (1,4,5) 1.42867
(1,3,6): (1,2,6) -0.883782 (1,3,5) -0.180937 (1,3,7) -0.170600 (1,4,6) 1.59631
(1,3,7): (1,2,7) -0.792594 (1,3,6) 0.170600 (1,3,8) -0.464560 (1,4,7) 1.43090
(1,3,8): (1,2,8) -0.533597 (1,3,7) 0.464560 (1,3,9) -0.427168 (1,4,8) 0.796007
(1,3,9): (1,2,9) -0.313422 (1,3,8) 0.427168 (1,3,10) -0.232041 (1,4,9) 0.370992
(1,3,10): (1,2,10) -0.202056 (1,3,9) 0.232041 (1,4,10) 0.193903
(1,4,1): (1,3,1) -7.376882E-02 (1,4,2) 0.222506 (1,5,1) -3.782120E-02
(1,4,2): (1,3,2) -0.147919 (1,4,1) -0.222506 (1,4,3) 0.519600 (1,5,2) -1.784042E-02
(1,4,3): (1,3,3) -0.353595 (1,4,2) -0.519600 (1,4,4) 0.903921 (1,5,3) 0.142224
(1,4,4): (1,3,4) -0.789455 (1,4,3) -0.903921 (1,4,5) 1.12097 (1,5,4) 0.805849
(1,4,5): (1,3,5) -1.42867 (1,4,4) -1.12097 (1,4,6) 0.346673 (1,5,5) 2.49878
(1,4,6): (1,3,6) -1.59631 (1,4,5) -0.346673 (1,4,7) -0.334105 (1,5,6) 2.60257
(1,4,7): (1,3,7) -1.43090 (1,4,6) 0.334105 (1,4,8) -1.09749 (1,5,7) 2.49722
(1,4,8): (1,3,8) -0.796007 (1,4,7) 1.09749 (1,4,9) -0.852412 (1,5,8) 0.800906
(1,4,9): (1,3,9) -0.370992 (1,4,8) 0.852412 (1,4,10) -0.409196 (1,5,9) 0.130342
(1,4,10): (1,3,10) -0.193903 (1,4,9) 0.409196 (1,5,10) -3.747471E-02
(1,5,1): (1,4,1) 3.782120E-02 (1,5,2) 0.242528 (1,6,1) -0.250948
(1,5,2): (1,4,2) 1.784042E-02 (1,5,1) -0.242528 (1,5,3) 0.680503 (1,6,2) -0.430032
(1,5,3): (1,4,3) -0.142224 (1,5,2) -0.680503 (1,5,4) 1.57235 (1,6,3) -0.713825
(1,5,4): (1,4,4) -0.805849 (1,5,3) -1.57235 (1,5,5) 2.81871 (1,6,4) -0.356349
(1,5,5): (1,4,5) -2.49878 (1,5,4) -2.81871 (1,5,6) 0.448666 (1,6,5) 5.03364
(1,5,6): (1,4,6) -2.60257 (1,5,5) -0.448666 (1,5,7) -0.437609 (1,6,6) 3.69550
(1,5,7): (1,4,7) -2.49722 (1,5,6) 0.437609 (1,5,8) -2.79834 (1,6,7) 5.02631
(1,5,8): (1,4,8) -0.800906 (1,5,7) 2.79834 (1,5,9) -1.52758 (1,6,8) -0.379070
(1,5,9): (1,4,9) -0.130342 (1,5,8) 1.52758 (1,5,10) -0.577731 (1,6,9) -0.776461
(1,5,10): (1,4,10) 3.747471E-02 (1,5,9) 0.577731 (1,6,10) -0.585780
(1,6,1): (1,5,1) 0.250948 (1,6,2) 6.377476E-02 (1,7,1) -0.417712
(1,6,2): (1,5,2) 0.430032 (1,6,1) -6.377476E-02 (1,6,3) 0.396802 (1,7,2) -0.906709
(1,6,3): (1,5,3) 0.713825 (1,6,2) -0.396802 (1,6,4) 1.93407 (1,7,3) -2.43483
(1,6,4): (1,5,4) 0.356349 (1,6,3) -1.93407 (1,6,5) 8.35620 (1,7,4) -6.92931
(1,6,5): (1,5,5) -5.03364 (1,6,4) -8.35620 (1,6,6) -0.845860 (1,7,5) -21.4712
(1,6,6): (1,5,6) -3.69550 (1,6,5) 0.845860 (1,6,7) 0.849887 (1,7,6) -33.6375
(1,6,7): (1,5,7) -5.02631 (1,6,6) -0.849887 (1,6,8) -8.35165 (1,7,7) -21.4813
(1,6,8): (1,5,8) 0.379070 (1,6,7) 8.35165 (1,6,9) -1.92941 (1,7,8) -6.96159
(1,6,9): (1,5,9) 0.776461 (1,6,8) 1.92941 (1,6,10) -0.387413 (1,7,9) -2.53066
(1,6,10): (1,5,10) 0.585780 (1,6,9) 0.387413 (1,7,10) -1.18042
(1,7,1): (1,6,1) 0.417712 (1,7,2) -0.422913 (1,8,1) -0.228350
(1,7,2): (1,6,2) 0.906709 (1,7,1) 0.422913 (1,7,3) -1.11315 (1,8,2) -0.529288
(1,7,3): (1,6,3) 2.43483 (1,7,2) 1.11315 (1,7,4) -2.40879 (1,8,3) -1.55354
(1,7,4): (1,6,4) 6.92931 (1,7,3) 2.40879 (1,7,5) -4.93100 (1,8,4) -4.84596
(1,7,5): (1,6,5) 21.4712 (1,7,4) 4.93100 (1,7,6) -10.8978 (1,8,5) -15.8220
(1,7,6): (1,6,6) 33.6375 (1,7,5) 10.8978 (1,7,7) 10.8928 (1,8,6) -55.6090
(1,7,7): (1,6,7) 21.4813 (1,7,6) -10.8928 (1,7,8) 4.91254 (1,8,7) -15.8267
(1,7,8): (1,6,8) 6.96159 (1,7,7) -4.91254 (1,7,9) 2.34861 (1,8,8) -4.86239
(1,7,9): (1,6,9) 2.53066 (1,7,8) -2.34861 (1,7,10) 0.943372 (1,8,9) -1.60402
(1,7,10): (1,6,10) 1.18042 (1,7,9) -0.943372 (1,8,10) -0.679970
(1,8,1): (1,7,1) 0.228350 (1,8,2) -0.724446 (1,9,1) 0.207203
(1,8,2): (1,7,2) 0.529288 (1,8,1) 0.724446 (1,8,3) -2.14359 (1,9,2) 0.502670
(1,8,3): (1,7,3) 1.55354 (1,8,2) 2.14359 (1,8,4) -5.73157 (1,9,3) 1.50872
(1,8,4): (1,7,4) 4.84596 (1,8,3) 5.73157 (1,8,5) -15.9181 (1,9,4) 4.73982
(1,8,5): (1,7,5) 15.8220 (1,8,4) 15.9181 (1,8,6) -47.7778 (1,9,5) 15.5361
(1,8,6): (1,7,6) 55.6090 (1,8,5) 47.7778 (1,8,7) 47.7625 (1,9,6) 55.1311
(1,8,7): (1,7,7) 15.8267 (1,8,6) -47.7625 (1,8,8) 15.8833 (1,9,7) 15.5393
(1,8,8): (1,7,8) 4.86239 (1,8,7) -15.8833 (1,8,9) 5.63319 (1,9,8) 4.75305
(1,8,9): (1,7,9) 1.60402 (1,8,8) -5.63319 (1,8,10) 1.86995 (1,9,9) 1.55336
(1,8,10): (1,7,10) 0.679970 (1,8,9) -1.86995 (1,9,10) 0.643902
(1,9,1): (1,8,1) -0.207203 (1,9,2) -0.428316 (1,10,1) 0.401947
(1,9,2): (1,8,2) -0.502670 (1,9,1) 0.428316 (1,9,3) -1.13100 (1,10,2) 0.885540
(1,9,3): (1,8,3) -1.50872 (1,9,2) 1.13100 (1,9,4) -2.46701 (1,10,3) 2.39122
(1,9,4): (1,8,4) -4.73982 (1,9,3) 2.46701 (1,9,5) -5.07837 (1,10,4) 6.77529
(1,9,5): (1,8,5) -15.5361 (1,9,4) 5.07837 (1,9,6) -10.9157 (1,10,5) 20.7256
(1,9,6): (1,8,6) -55.1311 (1,9,5) 10.9157 (1,9,7) 10.9092 (1,10,6) 32.7187
(1,9,7): (1,8,7) -15.5393 (1,9,6) -10.9092 (1,9,8) 5.05799 (1,10,7) 20.7346
(1,9,8): (1,8,8) -4.75305 (1,9,7) -5.05799 (1,9,9) 2.40404 (1,10,8) 6.80518
(1,9,9): (1,8,9) -1.55336 (1,9,8) -2.40404 (1,9,10) 0.957526 (1,10,9) 2.48269
(1,9,10): (1,8,10) -0.643902 (1,9,9) -0.957526 (1,10,10) 1.15193
(1,10,1): (1,9,1) -0.401947 (1,10,2) 5.310773E-02 (1,11,1) 0.244732
(1,10,2): (1,9,2) -0.885540 (1,10,1) -5.310773E-02 (1,10,3) 0.357382 (1,11,2) 0.424676
(1,10,3): (1,9,3) -2.39122 (1,10,2) -0.357382 (1,10,4) 1.77219 (1,11,3) 0.722197
(1,10,4): (1,9,4) -6.77529 (1,10,3) -1.77219 (1,10,5) 7.67912 (1,11,4) 0.456042
(1,10,5): (1,9,5) -20.7256 (1,10,4) -7.67912 (1,10,6) -0.955124 (1,11,5) -4.43236
(1,10,6): (1,9,6) -32.7187 (1,10,5) 0.955124 (1,10,7) 0.956898 (1,11,6) -3.03402
(1,10,7): (1,9,7) -20.7346 (1,10,6) -0.956898 (1,10,8) -7.67782 (1,11,7) -4.42547
(1,10,8): (1,9,8) -6.80518 (1,10,7) 7.67782 (1,10,9) -1.77232 (1,11,8) 0.477754
(1,10,9): (1,9,9) -2.48269 (1,10,8) 1.77232 (1,10,10) -0.354609 (1,11,9) 0.782956
(1,10,10): (1,9,10) -1.15193 (1,10,9) 0.354609 (1,11,10) 0.577544
(1,11,1): (1,10,1) -0.244732 (1,11,2) 0.232711 (1,12,1) 4.001644E-02
(1,11,2): (1,10,2) -0.424676 (1,11,1) -0.232711 (1,11,3) 0.654707 (1,12,2) 2.146910E-02
(1,11,3): (1,10,3) -0.722197 (1,11,2) -0.654707 (1,11,4) 1.50328 (1,12,3) -0.129246
(1,11,4): (1,10,4) -0.456042 (1,11,3) -1.50328 (1,11,5) 2.65878 (1,12,4) -0.751496
(1,11,5): (1,10,5) 4.43236 (1,11,4) -2.65878 (1,11,6) 0.404611 (1,12,5) -2.32512
(1,11,6): (1,10,6) 3.03402 (1,11,5) -0.404611 (1,11,7) -0.396197 (1,12,6) -2.39860
(1,11,7): (1,10,7) 4.42547 (1,11,6) 0.396197 (1,11,8) -2.64217 (1,12,7) -2.32339
(1,11,8): (1,10,8) -0.477754 (1,11,7) 2.64217 (1,11,9) -1.46416 (1,12,8) -0.746222
(1,11,9): (1,10,9) -0.782956 (1,11,8) 1.46416 (1,11,10) -0.559579 (1,12,9) -0.116845
(1,11,10): (1,10,10) -0.577544 (1,11,9) 0.559579 (1,12,10) 4.188622E-02
(1,12,1): (1,11,1) -4.001644E-02 (1,12,2) 0.214128 (1,13,1) -6.642499E-02
(1,12,2): (1,11,2) -2.146910E-02 (1,12,1) -0.214128 (1,12,3) 0.503222 (1,13,2) -0.139270
(1,12,3): (1,11,3) 0.129246 (1,12,2) -0.503222 (1,12,4) 0.876598 (1,13,3) -0.340852
(1,12,4): (1,11,4) 0.751496 (1,12,3) -0.876598 (1,12,5) 1.08047 (1,13,4) -0.764435
(1,12,5): (1,11,5) 2.32512 (1,12,4) -1.08047 (1,12,6) 0.332292 (1,13,5) -1.37774
(1,12,6): (1,11,6) 2.39860 (1,12,5) -0.332292 (1,12,7) -0.322190 (1,13,6) -1.53676
(1,12,7): (1,11,7) 2.32339 (1,12,6) 0.322190 (1,12,8) -1.06051 (1,13,7) -1.37947
(1,12,8): (1,11,8) 0.746222 (1,12,7) 1.06051 (1,12,9) -0.830500 (1,13,8) -0.769852
(1,12,9): (1,11,9) 0.116845 (1,12,8) 0.830500 (1,12,10) -0.400178 (1,13,9) -0.356220
(1,12,10): (1,11,10) -4.188622E-02 (1,12,9) 0.400178 (1,13,10) -0.182135
(1,13,1): (1,12,1) 6.642499E-02 (1,13,2) 0.141229 (1,14,1) -8.012465E-02
(1,13,2): (1,12,2) 0.139270 (1,13,1) -0.141229 (1,13,3) 0.301320 (1,14,2) -0.140366
(1,13,3): (1,12,3) 0.340852 (1,13,2) -0.301320 (1,13,4) 0.452561 (1,14,3) -0.279097
(1,13,4): (1,12,4) 0.764435 (1,13,3) -0.452561 (1,13,5) 0.468863 (1,14,4) -0.508601
(1,13,5): (1,12,5) 1.37774 (1,13,4) -0.468863 (1,13,6) 0.175013 (1,14,5) -0.767663
(1,13,6): (1,12,6) 1.53676 (1,13,5) -0.175013 (1,13,7) -0.166646 (1,14,6) -0.859682
(1,13,7): (1,12,7) 1.37947 (1,13,6) 0.166646 (1,13,8) -0.452698 (1,14,7) -0.770201
(1,13,8): (1,12,8) 0.769852 (1,13,7) 0.452698 (1,13,9) -0.416628 (1,14,8) -0.516288
(1,13,9): (1,12,9) 0.356220 (1,13,8) 0.416628 (1,13,10) -0.226019 (1,14,9) -0.299137
(1,13,10): (1,12,10) 0.182135 (1,13,9) 0.226019 (1,14,10) -0.188949
(1,14,1): (1,13,1) 8.012465E-02 (1,14,2) 8.098748E-02 (1,15,1) -4.727221E-02
(1,14,2): (1,13,2) 0.140366 (1,14,1) -8.098748E-02 (1,14,3) 0.162558 (1,15,2) -7.770803E-02
(1,14,3): (1,13,3) 0.279097 (1,14,2) -0.162558 (1,14,4) 0.223183 (1,15,3) -0.142640
(1,14,4): (1,13,4) 0.508601 (1,14,3) -0.223183 (1,14,5) 0.210545 (1,15,4) -0.239018
(1,14,5): (1,13,5) 0.767663 (1,14,4) -0.210545 (1,14,6) 8.359317E-02 (1,15,5) -0.336275
(1,14,6): (1,13,6) 0.859682 (1,14,5) -8.359317E-02 (1,14,7) -7.775580E-02 (1,15,6) -0.374097
(1,14,7): (1,13,7) 0.770201 (1,14,6) 7.775580E-02 (1,14,8) -0.199559 (1,15,7) -0.337880
(1,14,8): (1,13,8) 0.516288 (1,14,7) 0.199559 (1,14,9) -0.199688 (1,15,8) -0.243810
(1,14,9): (1,13,9) 0.299137 (1,14,8) 0.199688 (1,14,10) -0.115910 (1,15,9) -0.154748
(1,14,10): (1,13,10) 0.188949 (1,14,9) 0.115910 (1,15,10) -0.105642
(1,15,1): (1,14,1) 4.727221E-02 (1,15,2) 5.055067E-02
(1,15,2): (1,14,2) 7.770803E-02 (1,15,1) -5.055067E-02 (1,15,3) 9.761373E-02
(1,15,3): (1,14,3) 0.142640 (1,15,2) -9.761373E-02 (1,15,4) 0.126820
(1,15,4): (1,14,4) 0.239018 (1,15,3) -0.126820 (1,15,5) 0.113407
(1,15,5): (1,14,5) 0.336275 (1,15,4) -0.113407 (1,15,6) 4.587802E-02
(1,15,6): (1,14,6) 0.374097 (1,15,5) -4.587802E-02 (1,15,7) -4.164363E-02
(1,15,7): (1,14,7) 0.337880 (1,15,6) 4.164363E-02 (1,15,8) -0.105616
(1,15,8): (1,14,8) 0.243810 (1,15,7) 0.105616 (1,15,9) -0.110665
(1,15,9): (1,14,9) 0.154748 (1,15,8) 0.110665 (1,15,10) -6.682178E-02
(1,15,10): (1,14,10) 0.105642 (1,15,9) 6.682178E-02

 WEL PACKAGE (WEL-1) FLOW RATES   PERIOD      2   STEP       74
 ----------------------------------------------------------------------------------------
   NUMBER   CELLID                    RATE       NAME                                    
 ----------------------------------------------------------------------------------------
     1      (1,8,6)              -206.35473      WEL                                     
 ----------------------------------------------------------------------------------------




 DRN PACKAGE (DRN-0) FLOW RATES   PERIOD      2   STEP       74
 ----------------------------------------------------------------------------------------
   NUMBER   CELLID                    RATE       NAME                                    
 ----------------------------------------------------------------------------------------
     1      (1,1,1)               0.0000000      SURF                                    
     2      (1,1,2)               0.0000000      SURF                                    
     3      (1,1,3)               0.0000000      SURF                                    
     4      (1,1,4)               0.0000000      SURF                                    
     5      (1,1,5)               0.0000000      SURF                                    
     6      (1,1,6)               0.0000000      SURF                                    
     7      (1,1,7)               0.0000000      SURF                                    
     8      (1,1,8)               0.0000000      SURF                                    
     9      (1,1,9)               0.0000000      SURF                                    
     10     (1,1,10)              0.0000000      SURF                                    
     11     (1,2,1)               0.0000000      SURF                                    
     12     (1,2,2)               0.0000000      SURF                                    
     13     (1,2,3)               0.0000000      SURF                                    
     14     (1,2,4)               0.0000000      SURF                                    
     15     (1,2,5)               0.0000000      SURF                                    
     16     (1,2,6)               0.0000000      SURF                                    
     17     (1,2,7)               0.0000000      SURF                                    
     18     (1,2,8)               0.0000000      SURF                                    
     19     (1,2,9)               0.0000000      SURF                                    
     20     (1,2,10)              0.0000000      SURF                                    
     21     (1,3,1)               0.0000000      SURF                                    
     22     (1,3,2)               0.0000000      SURF                                    
     23     (1,3,3)               0.0000000      SURF                                    
     24     (1,3,4)               0.0000000      SURF                                    
     25     (1,3,5)               0.0000000      SURF                                    
     26     (1,3,6)               0.0000000      SURF                                    
     27     (1,3,7)               0.0000000      SURF                                    
     28     (1,3,8)               0.0000000      SURF                                    
     29     (1,3,9)               0.0000000      SURF                                    
     30     (1,3,10)              0.0000000      SURF                                    
     31     (1,4,1)               0.0000000      SURF                                    
     32     (1,4,2)               0.0000000      SURF                                    
     33     (1,4,3)               0.0000000      SURF                                    
     34     (1,4,4)               0.0000000      SURF                                    
     35     (1,4,5)               0.0000000      SURF                                    
     36     (1,4,6)               0.0000000      SURF                                    
     37     (1,4,7)               0.0000000      SURF                                    
     38     (1,4,8)               0.0000000      SURF                                    
     39     (1,4,9)               0.0000000      SURF                                    
     40     (1,4,10)              0.0000000      SURF                                    
     41     (1,5,1)               0.0000000      SURF                                    
     42     (1,5,2)               0.0000000      SURF                                    
     43     (1,5,3)               0.0000000      SURF                                    
     44     (1,5,4)               0.0000000      SURF                                    
     45     (1,5,5)               0.0000000      SURF                                    
     46     (1,5,6)               0.0000000      SURF                                    
     47     (1,5,7)               0.0000000      SURF                                    
     48     (1,5,8)               0.0000000      SURF                                    
     49     (1,5,9)               0.0000000      SURF                                    
     50     (1,5,10)              0.0000000      SURF                                    
     51     (1,6,1)               0.0000000      SURF                                    
     52     (1,6,2)               0.0000000      SURF                                    
     53     (1,6,3)               0.0000000      SURF                                    
     54     (1,6,4)               0.0000000      SURF                                    
     55     (1,6,5)               0.0000000      SURF                                    
     56     (1,6,6)               0.0000000      SURF                                    
     57     (1,6,7)              -3.19385435E-07 SURF                                    
     58     (1,6,8)               0.0000000      SURF                                    
     59     (1,6,9)               0.0000000      SURF                                    
     60     (1,6,10)              0.0000000      SURF                                    
     61     (1,7,1)               0.0000000      SURF                                    
     62     (1,7,2)               0.0000000      SURF                                    
     63     (1,7,3)               0.0000000      SURF                                    
     64     (1,7,4)               0.0000000      SURF                                    
     65     (1,7,5)               0.0000000      SURF                                    
     66     (1,7,6)               0.0000000      SURF                                    
     67     (1,7,7)               0.0000000      SURF                                    
     68     (1,7,8)               0.0000000      SURF                                    
     69     (1,7,9)               0.0000000      SURF                                    
     70     (1,7,10)              0.0000000      SURF                                    
     71     (1,8,1)               0.0000000      SURF                                    
     72     (1,8,2)               0.0000000      SURF                                    
     73     (1,8,3)               0.0000000      SURF                                    
     74     (1,8,4)               0.0000000      SURF                                    
     75     (1,8,5)               0.0000000      SURF                                    
     76     (1,8,6)               0.0000000      SURF                                    
     77     (1,8,7)               0.0000000      SURF                                    
     78     (1,8,8)               0.0000000      SURF                                    
     79     (1,8,9)               0.0000000      SURF                                    
     80     (1,8,10)              0.0000000      SURF                                    
     81     (1,9,1)               0.0000000      SURF                                    
     82     (1,9,2)               0.0000000      SURF                                    
     83     (1,9,3)               0.0000000      SURF                                    
     84     (1,9,4)               0.0000000      SURF                                    
     85     (1,9,5)               0.0000000      SURF                                    
     86     (1,9,6)               0.0000000      SURF                                    
     87     (1,9,7)               0.0000000      SURF                                    
     88     (1,9,8)               0.0000000      SURF                                    
     89     (1,9,9)               0.0000000      SURF                                    
     90     (1,9,10)              0.0000000      SURF                                    
     91     (1,10,1)              0.0000000      SURF                                    
     92     (1,10,2)              0.0000000      SURF                                    
     93     (1,10,3)              0.0000000      SURF                                    
     94     (1,10,4)              0.0000000      SURF                                    
     95     (1,10,5)              0.0000000      SURF                                    
     96     (1,10,6)              0.0000000      SURF                                    
     97     (1,10,7)              0.0000000      SURF                                    
     98     (1,10,8)              0.0000000      SURF                                    
     99     (1,10,9)              0.0000000      SURF                                    
    100     (1,10,10)             0.0000000      SURF                                    
    101     (1,11,1)              0.0000000      SURF                                    
    102     (1,11,2)              0.0000000      SURF                                    
    103     (1,11,3)              0.0000000      SURF                                    
    104     (1,11,4)              0.0000000      SURF                                    
    105     (1,11,5)              0.0000000      SURF                                    
    106     (1,11,6)              0.0000000      SURF                                    
    107     (1,11,7)              0.0000000      SURF                                    
    108     (1,11,8)              0.0000000      SURF                                    
    109     (1,11,9)              0.0000000      SURF                                    
    110     (1,11,10)             0.0000000      SURF                                    
    111     (1,12,1)              0.0000000      SURF                                    
    112     (1,12,2)              0.0000000      SURF                                    
    113     (1,12,3)              0.0000000      SURF                                    
    114     (1,12,4)              0.0000000      SURF                                    
    115     (1,12,5)              0.0000000      SURF                                    
    116     (1,12,6)              0.0000000      SURF                                    
    117     (1,12,7)              0.0000000      SURF                                    
    118     (1,12,8)              0.0000000      SURF                                    
    119     (1,12,9)              0.0000000      SURF                                    
    120     (1,12,10)             0.0000000      SURF                                    
    121     (1,13,1)              0.0000000      SURF                                    
    122     (1,13,2)              0.0000000      SURF                                    
    123     (1,13,3)              0.0000000      SURF                                    
    124     (1,13,4)              0.0000000      SURF                                    
    125     (1,13,5)              0.0000000      SURF                                    
    126     (1,13,6)              0.0000000      SURF                                    
    127     (1,13,7)              0.0000000      SURF                                    
    128     (1,13,8)              0.0000000      SURF                                    
    129     (1,13,9)              0.0000000      SURF                                    
    130     (1,13,10)             0.0000000      SURF                                    
    131     (1,14,1)              0.0000000      SURF                                    
    132     (1,14,2)              0.0000000      SURF                                    
    133     (1,14,3)              0.0000000      SURF                                    
    134     (1,14,4)              0.0000000      SURF                                    
    135     (1,14,5)              0.0000000      SURF                                    
    136     (1,14,6)              0.0000000      SURF                                    
    137     (1,14,7)              0.0000000      SURF                                    
    138     (1,14,8)              0.0000000      SURF                                    
    139     (1,14,9)              0.0000000      SURF                                    
    140     (1,14,10)             0.0000000      SURF                                    
    141     (1,15,1)              0.0000000      SURF                                    
    142     (1,15,2)              0.0000000      SURF                                    
    143     (1,15,3)              0.0000000      SURF                                    
    144     (1,15,4)              0.0000000      SURF                                    
    145     (1,15,5)              0.0000000      SURF                                    
    146     (1,15,6)              0.0000000      SURF                                    
    147     (1,15,7)              0.0000000      SURF                                    
    148     (1,15,8)              0.0000000      SURF                                    
    149     (1,15,9)              0.0000000      SURF                                    
    150     (1,15,10)             0.0000000      SURF                                    
 ----------------------------------------------------------------------------------------




 API PACKAGE (MAR) FLOW RATES   PERIOD      2   STEP       74
 -----------------------------------------------
   NUMBER   CELLID                    RATE      
 -----------------------------------------------
     1      (1,6,5)               35.709142     
     2      (1,6,6)               35.709142     
     3      (1,6,7)               35.709142     
     4      (1,10,5)              33.075767     
     5      (1,10,6)              33.075767     
     6      (1,10,7)              33.075767     
 -----------------------------------------------



1
  HEAD IN LAYER   1 AT END OF TIME STEP  74 IN STRESS PERIOD    2
  ---------------------------------------------------------------------------

            1           2           3           4           5           6           7           8           9          10
 ........................................................................................................................
   1   1.2637E-02  1.8163E-02  2.8718E-02  4.2261E-02  5.4265E-02  5.9127E-02  5.4799E-02  4.3740E-02  3.2080E-02  2.4998E-02
   2   1.7867E-02  2.6515E-02  4.3672E-02  6.6930E-02  8.8688E-02  9.7336E-02  8.9410E-02  6.8955E-02  4.8375E-02  3.6357E-02
   3   2.6670E-02  4.1439E-02  7.2572E-02  0.1188      0.1663      0.1841      0.1674      0.1217      7.9470E-02  5.6449E-02
   4   3.4022E-02  5.6149E-02  0.1076      0.1962      0.3050      0.3385      0.3062      0.1997      0.1161      7.5693E-02
   5   3.0253E-02  5.4374E-02  0.1216      0.2746      0.5420      0.5844      0.5431      0.2776      0.1290      7.1974E-02
   6   5.2337E-03  1.1604E-02  5.1082E-02  0.2400      0.9996      0.9227       1.000      0.2408      5.2354E-02  1.3815E-02
   7  -3.6516E-02 -7.8962E-02 -0.1912     -0.4367     -0.9524      -2.157     -0.9528     -0.4390     -0.1994     -0.1041    
   8  -5.9434E-02 -0.1323     -0.3495     -0.9435      -2.701      -9.247      -2.702     -0.9476     -0.3631     -0.1728    
   9  -3.8634E-02 -8.1631E-02 -0.1957     -0.4473     -0.9789      -2.189     -0.9795     -0.4499     -0.2045     -0.1077    
  10   1.5548E-03  6.8619E-03  4.2449E-02  0.2159      0.9192      0.8317      0.9194      0.2162      4.2732E-02  7.4217E-03
  11   2.5965E-02  4.9122E-02  0.1139      0.2604      0.5133      0.5516      0.5141      0.2628      0.1201      6.4804E-02
  12   2.9954E-02  5.1258E-02  0.1011      0.1871      0.2921      0.3243      0.2931      0.1901      0.1086      6.8964E-02
  13   2.3332E-02  3.7402E-02  6.7332E-02  0.1121      0.1582      0.1754      0.1591      0.1145      7.3313E-02  5.0875E-02
  14   1.5338E-02  2.3418E-02  3.9609E-02  6.1791E-02  8.2672E-02  9.0956E-02  8.3251E-02  6.3460E-02  4.3617E-02  3.2076E-02
  15   1.0618E-02  1.5665E-02  2.5402E-02  3.8036E-02  4.9321E-02  5.3884E-02  4.9742E-02  3.9232E-02  2.8209E-02  2.1546E-02

 HEAD WILL BE SAVED ON UNIT 1100 AT END OF TIME STEP   74, STRESS PERIOD    2


  VOLUME BUDGET FOR ENTIRE MODEL AT END OF TIME STEP   74, STRESS PERIOD   2
  ---------------------------------------------------------------------------------------------------

     CUMULATIVE VOLUME      L**3       RATES FOR THIS TIME STEP      L**3/T          PACKAGE NAME    
     ------------------                 ------------------------                     ----------------

           IN:                                      IN:
           ---                                      ---
              STO-SS =          24.2232                STO-SS =       9.1639E-03     STORAGE                          
              STO-SY =       59977.8827                STO-SY =          19.0910     STORAGE                          
                 WEL =           0.0000                   WEL =           0.0000     WEL-1                            
                 DRN =           0.0000                   DRN =           0.0000     DRN-0                            
                 API =      151294.8998                   API =         206.3547     MAR                              
                 CHD =       2.0279E-08                   CHD =           0.0000     CHD_0                            

            TOTAL IN =      211297.0057              TOTAL IN =         225.4548

          OUT:                                     OUT:
          ----                                     ----
              STO-SS =          20.6949                STO-SS =       9.6578E-03     STORAGE                          
              STO-SY =       40412.6045                STO-SY =          19.0905     STORAGE                          
                 WEL =      170863.7060                   WEL =         206.3547     WEL-1                            
                 DRN =       2.4757E-04                   DRN =       3.1939E-07     DRN-0                            
                 API =           0.0000                   API =           0.0000     MAR                              
                 CHD =       2.0705E-08                   CHD =           0.0000     CHD_0                            

           TOTAL OUT =      211297.0057             TOTAL OUT =         225.4548

            IN - OUT =      -1.0618E-06              IN - OUT =       8.0001E-10

 PERCENT DISCREPANCY =          -0.00     PERCENT DISCREPANCY =           0.00




         TIME SUMMARY AT END OF TIME STEP   74 IN STRESS PERIOD    2
                    SECONDS     MINUTES      HOURS       DAYS        YEARS
                    -----------------------------------------------------------
   TIME STEP LENGTH 8.64000E+05  14400.      240.00      10.000     2.73785E-02
 STRESS PERIOD TIME 6.39360E+07 1.06560E+06  17760.      740.00      2.0260    
         TOTAL TIME 6.40224E+07 1.06704E+06  17784.      741.00      2.0287    


end timestep


start timestep kper="2" kstp="75" mode="normal"

 UBDSV1 SAVING           STO-SS ON UNIT   1099 AT TIME STEP     75, STRESS PERIOD      2
 UBDSV1 SAVING           STO-SY ON UNIT   1099 AT TIME STEP     75, STRESS PERIOD      2
 UBDSV1 SAVING     FLOW-JA-FACE ON UNIT   1099 AT TIME STEP     75, STRESS PERIOD      2
 UBDSV06 SAVING       DATA-SPDIS IN MODEL GWF              PACKAGE NPF             CONNECTED TO MODEL GWF              PACKAGE NPF              ON UNIT   1099 AT TIME STEP     75, STRESS PERIOD      2
 UBDSV06 SAVING              WEL IN MODEL GWF              PACKAGE GWF             CONNECTED TO MODEL GWF              PACKAGE WEL-1            ON UNIT   1099 AT TIME STEP     75, STRESS PERIOD      2
 UBDSV06 SAVING              DRN IN MODEL GWF              PACKAGE GWF             CONNECTED TO MODEL GWF              PACKAGE DRN-0            ON UNIT   1099 AT TIME STEP     75, STRESS PERIOD      2
 UBDSV06 SAVING              API IN MODEL GWF              PACKAGE GWF             CONNECTED TO MODEL GWF              PACKAGE MAR              ON UNIT   1099 AT TIME STEP     75, STRESS PERIOD      2
 UBDSV06 SAVING              CHD IN MODEL GWF              PACKAGE GWF             CONNECTED TO MODEL GWF              PACKAGE CHD_0            ON UNIT   1099 AT TIME STEP     75, STRESS PERIOD      2

    CALCULATED INTERCELL FLOW FOR PERIOD 2 STEP 75
(1,1,1): (1,1,2) 5.668269E-02 (1,2,1) 5.309770E-02
(1,1,2): (1,1,1) -5.668269E-02 (1,1,3) 0.108151 (1,2,2) 8.457316E-02
(1,1,3): (1,1,2) -0.108151 (1,1,4) 0.138640 (1,2,3) 0.151259
(1,1,4): (1,1,3) -0.138640 (1,1,5) 0.122815 (1,2,4) 0.249720
(1,1,5): (1,1,4) -0.122815 (1,1,6) 4.981089E-02 (1,2,5) 0.348968
(1,1,6): (1,1,5) -4.981089E-02 (1,1,7) -4.412247E-02 (1,2,6) 0.387630
(1,1,7): (1,1,6) 4.412247E-02 (1,1,8) -0.112868 (1,2,7) 0.350935
(1,1,8): (1,1,7) 0.112868 (1,1,9) -0.119003 (1,2,8) 0.255380
(1,1,9): (1,1,8) 0.119003 (1,1,10) -7.227757E-02 (1,2,9) 0.164992
(1,1,10): (1,1,9) 7.227757E-02 (1,2,10) 0.115129
(1,2,1): (1,1,1) -5.309770E-02 (1,2,2) 8.815927E-02 (1,3,1) 8.876470E-02
(1,2,2): (1,1,2) -8.457316E-02 (1,2,1) -8.815927E-02 (1,2,3) 0.174852 (1,3,2) 0.150365
(1,2,3): (1,1,3) -0.151259 (1,2,2) -0.174852 (1,2,4) 0.237089 (1,3,3) 0.291715
(1,2,4): (1,1,4) -0.249720 (1,2,3) -0.237089 (1,2,5) 0.221940 (1,3,4) 0.525579
(1,2,5): (1,1,5) -0.348968 (1,2,4) -0.221940 (1,2,6) 8.836047E-02 (1,3,5) 0.790849
(1,2,6): (1,1,6) -0.387630 (1,2,5) -8.836047E-02 (1,2,7) -8.070729E-02 (1,3,6) 0.885314
(1,2,7): (1,1,7) -0.350935 (1,2,6) 8.070729E-02 (1,2,8) -0.208290 (1,3,7) 0.793951
(1,2,8): (1,1,8) -0.255380 (1,2,7) 0.208290 (1,2,9) -0.209350 (1,3,8) 0.534587
(1,2,9): (1,1,9) -0.164992 (1,2,8) 0.209350 (1,2,10) -0.122120 (1,3,9) 0.314161
(1,2,10): (1,1,10) -0.115129 (1,2,9) 0.122120 (1,3,10) 0.202710
(1,3,1): (1,2,1) -8.876470E-02 (1,3,2) 0.149760 (1,4,1) 7.254342E-02
(1,3,2): (1,2,2) -0.150365 (1,3,1) -0.149760 (1,3,3) 0.316236 (1,4,2) 0.146242
(1,3,3): (1,2,3) -0.291715 (1,3,2) -0.316236 (1,3,4) 0.470828 (1,4,3) 0.351358
(1,3,4): (1,2,4) -0.525579 (1,3,3) -0.470828 (1,3,5) 0.486436 (1,4,4) 0.787068
(1,3,5): (1,2,5) -0.790849 (1,3,4) -0.486436 (1,3,6) 0.182194 (1,4,5) 1.42670
(1,3,6): (1,2,6) -0.885314 (1,3,5) -0.182194 (1,3,7) -0.171450 (1,4,6) 1.59463
(1,3,7): (1,2,7) -0.793951 (1,3,6) 0.171450 (1,3,8) -0.466841 (1,4,7) 1.42889
(1,3,8): (1,2,8) -0.534587 (1,3,7) 0.466841 (1,3,9) -0.429552 (1,4,8) 0.793484
(1,3,9): (1,2,9) -0.314161 (1,3,8) 0.429552 (1,3,10) -0.233483 (1,4,9) 0.368402
(1,3,10): (1,2,10) -0.202710 (1,3,9) 0.233483 (1,4,10) 0.191491
(1,4,1): (1,3,1) -7.254342E-02 (1,4,2) 0.223514 (1,5,1) -4.194825E-02
(1,4,2): (1,3,2) -0.146242 (1,4,1) -0.223514 (1,4,3) 0.521693 (1,5,2) -2.313879E-02
(1,4,3): (1,3,3) -0.351358 (1,4,2) -0.521693 (1,4,4) 0.907037 (1,5,3) 0.135369
(1,4,4): (1,3,4) -0.787068 (1,4,3) -0.907037 (1,4,5) 1.12427 (1,5,4) 0.798347
(1,4,5): (1,3,5) -1.42670 (1,4,4) -1.12427 (1,4,6) 0.348226 (1,5,5) 2.49218
(1,4,6): (1,3,6) -1.59463 (1,4,5) -0.348226 (1,4,7) -0.335291 (1,5,6) 2.59662
(1,4,7): (1,3,7) -1.42889 (1,4,6) 0.335291 (1,4,8) -1.10031 (1,5,7) 2.49043
(1,4,8): (1,3,8) -0.793484 (1,4,7) 1.10031 (1,4,9) -0.854883 (1,5,8) 0.792882
(1,4,9): (1,3,9) -0.368402 (1,4,8) 0.854883 (1,4,10) -0.410465 (1,5,9) 0.122338
(1,4,10): (1,3,10) -0.191491 (1,4,9) 0.410465 (1,5,10) -4.493818E-02
(1,5,1): (1,4,1) 4.194825E-02 (1,5,2) 0.242361 (1,6,1) -0.257544
(1,5,2): (1,4,2) 2.313879E-02 (1,5,1) -0.242361 (1,5,3) 0.681040 (1,6,2) -0.438420
(1,5,3): (1,4,3) -0.135369 (1,5,2) -0.681040 (1,5,4) 1.57488 (1,6,3) -0.724672
(1,5,4): (1,4,4) -0.798347 (1,5,3) -1.57488 (1,5,5) 2.82308 (1,6,4) -0.368073
(1,5,5): (1,4,5) -2.49218 (1,5,4) -2.82308 (1,5,6) 0.450865 (1,6,5) 5.02495
(1,5,6): (1,4,6) -2.59662 (1,5,5) -0.450865 (1,5,7) -0.439629 (1,6,6) 3.68845
(1,5,7): (1,4,7) -2.49043 (1,5,6) 0.439629 (1,5,8) -2.80257 (1,6,7) 5.01730
(1,5,8): (1,4,8) -0.792882 (1,5,7) 2.80257 (1,5,9) -1.53009 (1,6,8) -0.391630
(1,5,9): (1,4,9) -0.122338 (1,5,8) 1.53009 (1,5,10) -0.578466 (1,6,9) -0.789118
(1,5,10): (1,4,10) 4.493818E-02 (1,5,9) 0.578466 (1,6,10) -0.597514
(1,6,1): (1,5,1) 0.257544 (1,6,2) 6.183494E-02 (1,7,1) -0.424129
(1,6,2): (1,5,2) 0.438420 (1,6,1) -6.183494E-02 (1,6,3) 0.394909 (1,7,2) -0.914927
(1,6,3): (1,5,3) 0.724672 (1,6,2) -0.394909 (1,6,4) 1.93568 (1,7,3) -2.44586
(1,6,4): (1,5,4) 0.368073 (1,6,3) -1.93568 (1,6,5) 8.36439 (1,7,4) -6.94304
(1,6,5): (1,5,5) -5.02495 (1,6,4) -8.36439 (1,6,6) -0.842148 (1,7,5) -21.4881
(1,6,6): (1,5,6) -3.68845 (1,6,5) 0.842148 (1,6,7) 0.846039 (1,7,6) -33.6518
(1,6,7): (1,5,7) -5.01730 (1,6,6) -0.846039 (1,6,8) -8.36024 (1,7,7) -21.4985
(1,6,8): (1,5,8) 0.391630 (1,6,7) 8.36024 (1,6,9) -1.93199 (1,7,8) -6.97613
(1,6,9): (1,5,9) 0.789118 (1,6,8) 1.93199 (1,6,10) -0.387248 (1,7,9) -2.54342
(1,6,10): (1,5,10) 0.597514 (1,6,9) 0.387248 (1,7,10) -1.19184
(1,7,1): (1,6,1) 0.424129 (1,7,2) -0.426620 (1,8,1) -0.231039
(1,7,2): (1,6,2) 0.914927 (1,7,1) 0.426620 (1,7,3) -1.11770 (1,8,2) -0.532827
(1,7,3): (1,6,3) 2.44586 (1,7,2) 1.11770 (1,7,4) -2.40927 (1,8,3) -1.55858
(1,7,4): (1,6,4) 6.94304 (1,7,3) 2.40927 (1,7,5) -4.92421 (1,8,4) -4.85248
(1,7,5): (1,6,5) 21.4881 (1,7,4) 4.92421 (1,7,6) -10.8900 (1,8,5) -15.8275
(1,7,6): (1,6,6) 33.6518 (1,7,5) 10.8900 (1,7,7) 10.8846 (1,8,6) -55.5989
(1,7,7): (1,6,7) 21.4985 (1,7,6) -10.8846 (1,7,8) 4.90483 (1,8,7) -15.8323
(1,7,8): (1,6,8) 6.97613 (1,7,7) -4.90483 (1,7,9) 2.34716 (1,8,8) -4.86923
(1,7,9): (1,6,9) 2.54342 (1,7,8) -2.34716 (1,7,10) 0.944702 (1,8,9) -1.60975
(1,7,10): (1,6,10) 1.19184 (1,7,9) -0.944702 (1,8,10) -0.684826
(1,8,1): (1,7,1) 0.231039 (1,8,2) -0.729007 (1,9,1) 0.209872
(1,8,2): (1,7,2) 0.532827 (1,8,1) 0.729007 (1,8,3) -2.14966 (1,9,2) 0.505803
(1,8,3): (1,7,3) 1.55858 (1,8,2) 2.14966 (1,8,4) -5.73342 (1,9,3) 1.51167
(1,8,4): (1,7,4) 4.85248 (1,8,3) 5.73342 (1,8,5) -15.9086 (1,9,4) 4.73928
(1,8,5): (1,7,5) 15.8275 (1,8,4) 15.9086 (1,8,6) -47.7467 (1,9,5) 15.5238
(1,8,6): (1,7,6) 55.5989 (1,8,5) 47.7467 (1,8,7) 47.7307 (1,9,6) 55.0907
(1,8,7): (1,7,7) 15.8323 (1,8,6) -47.7307 (1,8,8) 15.8725 (1,9,7) 15.5271
(1,8,8): (1,7,8) 4.86923 (1,8,7) -15.8725 (1,8,9) 5.63261 (1,9,8) 4.75282
(1,8,9): (1,7,9) 1.60975 (1,8,8) -5.63261 (1,8,10) 1.87212 (1,9,9) 1.55704
(1,8,10): (1,7,10) 0.684826 (1,8,9) -1.87212 (1,9,10) 0.648358
(1,9,1): (1,8,1) -0.209872 (1,9,2) -0.432407 (1,10,1) 0.408299
(1,9,2): (1,8,2) -0.505803 (1,9,1) 0.432407 (1,9,3) -1.13722 (1,10,2) 0.893426
(1,9,3): (1,8,3) -1.51167 (1,9,2) 1.13722 (1,9,4) -2.47229 (1,10,3) 2.40054
(1,9,4): (1,8,4) -4.73928 (1,9,3) 2.47229 (1,9,5) -5.08032 (1,10,4) 6.78180
(1,9,5): (1,8,5) -15.5238 (1,9,4) 5.08032 (1,9,6) -10.9093 (1,10,5) 20.7150
(1,9,6): (1,8,6) -55.0907 (1,9,5) 10.9093 (1,9,7) 10.9024 (1,10,6) 32.6977
(1,9,7): (1,8,7) -15.5271 (1,9,6) -10.9024 (1,9,8) 5.05901 (1,10,7) 20.7242
(1,9,8): (1,8,8) -4.75282 (1,9,7) -5.05901 (1,9,9) 2.40742 (1,10,8) 6.81249
(1,9,9): (1,8,9) -1.55704 (1,9,8) -2.40742 (1,9,10) 0.960493 (1,10,9) 2.49373
(1,9,10): (1,8,10) -0.648358 (1,9,9) -0.960493 (1,10,10) 1.16300
(1,10,1): (1,9,1) -0.408299 (1,10,2) 5.052193E-02 (1,11,1) 0.251320
(1,10,2): (1,9,2) -0.893426 (1,10,1) -5.052193E-02 (1,10,3) 0.352495 (1,11,2) 0.433369
(1,10,3): (1,9,3) -2.40054 (1,10,2) -0.352495 (1,10,4) 1.76383 (1,11,3) 0.734631
(1,10,4): (1,9,4) -6.78180 (1,10,3) -1.76383 (1,10,5) 7.66037 (1,11,4) 0.474030
(1,10,5): (1,9,5) -20.7150 (1,10,4) -7.66037 (1,10,6) -0.957483 (1,11,5) -4.40075
(1,10,6): (1,9,6) -32.6977 (1,10,5) 0.957483 (1,10,7) 0.959106 (1,11,6) -3.00146
(1,10,7): (1,9,7) -20.7242 (1,10,6) -0.959106 (1,10,8) -7.65947 (1,11,7) -4.39356
(1,10,8): (1,9,8) -6.81249 (1,10,7) 7.65947 (1,10,9) -1.76490 (1,11,8) 0.496557
(1,10,9): (1,9,9) -2.49373 (1,10,8) 1.76490 (1,10,10) -0.351485 (1,11,9) 0.797186
(1,10,10): (1,9,10) -1.16300 (1,10,9) 0.351485 (1,11,10) 0.589640
(1,11,1): (1,10,1) -0.251320 (1,11,2) 0.232210 (1,12,1) 4.406628E-02
(1,11,2): (1,10,2) -0.433369 (1,11,1) -0.232210 (1,11,3) 0.653520 (1,12,2) 2.700254E-02
(1,11,3): (1,10,3) -0.734631 (1,11,2) -0.653520 (1,11,4) 1.50059 (1,12,3) -0.120934
(1,11,4): (1,10,4) -0.474030 (1,11,3) -1.50059 (1,11,5) 2.65354 (1,12,4) -0.739072
(1,11,5): (1,10,5) 4.40075 (1,11,4) -2.65354 (1,11,6) 0.403535 (1,12,5) -2.30691
(1,11,6): (1,10,6) 3.00146 (1,11,5) -0.403535 (1,11,7) -0.394969 (1,12,6) -2.37890
(1,11,7): (1,10,7) 4.39356 (1,11,6) 0.394969 (1,11,8) -2.63679 (1,12,7) -2.30500
(1,11,8): (1,10,8) -0.496557 (1,11,7) 2.63679 (1,11,9) -1.46141 (1,12,8) -0.733303
(1,11,9): (1,10,9) -0.797186 (1,11,8) 1.46141 (1,11,10) -0.558555 (1,12,9) -0.107423
(1,11,10): (1,10,10) -0.589640 (1,11,9) 0.558555 (1,12,10) 4.958686E-02
(1,12,1): (1,11,1) -4.406628E-02 (1,12,2) 0.215114 (1,13,1) -6.534248E-02
(1,12,2): (1,11,2) -2.700254E-02 (1,12,1) -0.215114 (1,12,3) 0.504820 (1,13,2) -0.137633
(1,12,3): (1,11,3) 0.120934 (1,12,2) -0.504820 (1,12,4) 0.877990 (1,13,3) -0.338155
(1,12,4): (1,11,4) 0.739072 (1,12,3) -0.877990 (1,12,5) 1.08084 (1,13,4) -0.760185
(1,12,5): (1,11,5) 2.30691 (1,12,4) -1.08084 (1,12,6) 0.332674 (1,13,5) -1.37162
(1,12,6): (1,11,6) 2.37890 (1,12,5) -0.332674 (1,12,7) -0.322243 (1,13,6) -1.53005
(1,12,7): (1,11,7) 2.30500 (1,12,6) 0.322243 (1,12,8) -1.06043 (1,13,7) -1.37333
(1,12,8): (1,11,8) 0.733303 (1,12,7) 1.06043 (1,12,9) -0.831216 (1,13,8) -0.765489
(1,12,9): (1,11,9) 0.107423 (1,12,8) 0.831216 (1,12,10) -0.400876 (1,13,9) -0.353222
(1,12,10): (1,11,10) -4.958686E-02 (1,12,9) 0.400876 (1,13,10) -0.179837
(1,13,1): (1,12,1) 6.534248E-02 (1,13,2) 0.142768 (1,14,1) -8.073986E-02
(1,13,2): (1,12,2) 0.137633 (1,13,1) -0.142768 (1,13,3) 0.303971 (1,14,2) -0.141017
(1,13,3): (1,12,3) 0.338155 (1,13,2) -0.303971 (1,13,4) 0.455484 (1,14,3) -0.279779
(1,13,4): (1,12,4) 0.760185 (1,13,3) -0.455484 (1,13,5) 0.471061 (1,14,4) -0.509226
(1,13,5): (1,12,5) 1.37162 (1,13,4) -0.471061 (1,13,6) 0.175973 (1,14,5) -0.768114
(1,13,6): (1,12,6) 1.53005 (1,13,5) -0.175973 (1,13,7) -0.167244 (1,14,6) -0.860102
(1,13,7): (1,12,7) 1.37333 (1,13,6) 0.167244 (1,13,8) -0.454361 (1,14,7) -0.770699
(1,13,8): (1,12,8) 0.765489 (1,13,7) 0.454361 (1,13,9) -0.418690 (1,14,8) -0.517015
(1,13,9): (1,12,9) 0.353222 (1,13,8) 0.418690 (1,13,10) -0.227411 (1,14,9) -0.299987
(1,13,10): (1,12,10) 0.179837 (1,13,9) 0.227411 (1,14,10) -0.189832
(1,14,1): (1,13,1) 8.073986E-02 (1,14,2) 8.249008E-02 (1,15,1) -4.803870E-02
(1,14,2): (1,13,2) 0.141017 (1,14,1) -8.249008E-02 (1,14,3) 0.165176 (1,15,2) -7.863380E-02
(1,14,3): (1,13,3) 0.279779 (1,14,2) -0.165176 (1,14,4) 0.226156 (1,15,3) -0.143835
(1,14,4): (1,13,4) 0.509226 (1,14,3) -0.226156 (1,14,5) 0.212911 (1,15,4) -0.240503
(1,14,5): (1,13,5) 0.768114 (1,14,4) -0.212911 (1,14,6) 8.458398E-02 (1,15,5) -0.337970
(1,14,6): (1,13,6) 0.860102 (1,14,5) -8.458398E-02 (1,14,7) -7.843080E-02 (1,15,6) -0.375889
(1,14,7): (1,13,7) 0.770699 (1,14,6) 7.843080E-02 (1,14,8) -0.201448 (1,15,7) -0.339622
(1,14,8): (1,13,8) 0.517015 (1,14,7) 0.201448 (1,14,9) -0.201868 (1,15,8) -0.245406
(1,14,9): (1,13,9) 0.299987 (1,14,8) 0.201868 (1,14,10) -0.117334 (1,15,9) -0.156155
(1,14,10): (1,13,10) 0.189832 (1,14,9) 0.117334 (1,15,10) -0.106917
(1,15,1): (1,14,1) 4.803870E-02 (1,15,2) 5.189380E-02
(1,15,2): (1,14,2) 7.863380E-02 (1,15,1) -5.189380E-02 (1,15,3) 9.996092E-02
(1,15,3): (1,14,3) 0.143835 (1,15,2) -9.996092E-02 (1,15,4) 0.129503
(1,15,4): (1,14,4) 0.240503 (1,15,3) -0.129503 (1,15,5) 0.115563
(1,15,5): (1,14,5) 0.337970 (1,15,4) -0.115563 (1,15,6) 4.677244E-02
(1,15,6): (1,14,6) 0.375889 (1,15,5) -4.677244E-02 (1,15,7) -4.226853E-02
(1,15,7): (1,14,7) 0.339622 (1,15,6) 4.226853E-02 (1,15,8) -0.107360
(1,15,8): (1,14,8) 0.245406 (1,15,7) 0.107360 (1,15,9) -0.112656
(1,15,9): (1,14,9) 0.156155 (1,15,8) 0.112656 (1,15,10) -6.811478E-02
(1,15,10): (1,14,10) 0.106917 (1,15,9) 6.811478E-02

 WEL PACKAGE (WEL-1) FLOW RATES   PERIOD      2   STEP       75
 ----------------------------------------------------------------------------------------
   NUMBER   CELLID                    RATE       NAME                                    
 ----------------------------------------------------------------------------------------
     1      (1,8,6)              -206.23952      WEL                                     
 ----------------------------------------------------------------------------------------




 DRN PACKAGE (DRN-0) FLOW RATES   PERIOD      2   STEP       75
 ----------------------------------------------------------------------------------------
   NUMBER   CELLID                    RATE       NAME                                    
 ----------------------------------------------------------------------------------------
     1      (1,1,1)               0.0000000      SURF                                    
     2      (1,1,2)               0.0000000      SURF                                    
     3      (1,1,3)               0.0000000      SURF                                    
     4      (1,1,4)               0.0000000      SURF                                    
     5      (1,1,5)               0.0000000      SURF                                    
     6      (1,1,6)               0.0000000      SURF                                    
     7      (1,1,7)               0.0000000      SURF                                    
     8      (1,1,8)               0.0000000      SURF                                    
     9      (1,1,9)               0.0000000      SURF                                    
     10     (1,1,10)              0.0000000      SURF                                    
     11     (1,2,1)               0.0000000      SURF                                    
     12     (1,2,2)               0.0000000      SURF                                    
     13     (1,2,3)               0.0000000      SURF                                    
     14     (1,2,4)               0.0000000      SURF                                    
     15     (1,2,5)               0.0000000      SURF                                    
     16     (1,2,6)               0.0000000      SURF                                    
     17     (1,2,7)               0.0000000      SURF                                    
     18     (1,2,8)               0.0000000      SURF                                    
     19     (1,2,9)               0.0000000      SURF                                    
     20     (1,2,10)              0.0000000      SURF                                    
     21     (1,3,1)               0.0000000      SURF                                    
     22     (1,3,2)               0.0000000      SURF                                    
     23     (1,3,3)               0.0000000      SURF                                    
     24     (1,3,4)               0.0000000      SURF                                    
     25     (1,3,5)               0.0000000      SURF                                    
     26     (1,3,6)               0.0000000      SURF                                    
     27     (1,3,7)               0.0000000      SURF                                    
     28     (1,3,8)               0.0000000      SURF                                    
     29     (1,3,9)               0.0000000      SURF                                    
     30     (1,3,10)              0.0000000      SURF                                    
     31     (1,4,1)               0.0000000      SURF                                    
     32     (1,4,2)               0.0000000      SURF                                    
     33     (1,4,3)               0.0000000      SURF                                    
     34     (1,4,4)               0.0000000      SURF                                    
     35     (1,4,5)               0.0000000      SURF                                    
     36     (1,4,6)               0.0000000      SURF                                    
     37     (1,4,7)               0.0000000      SURF                                    
     38     (1,4,8)               0.0000000      SURF                                    
     39     (1,4,9)               0.0000000      SURF                                    
     40     (1,4,10)              0.0000000      SURF                                    
     41     (1,5,1)               0.0000000      SURF                                    
     42     (1,5,2)               0.0000000      SURF                                    
     43     (1,5,3)               0.0000000      SURF                                    
     44     (1,5,4)               0.0000000      SURF                                    
     45     (1,5,5)               0.0000000      SURF                                    
     46     (1,5,6)               0.0000000      SURF                                    
     47     (1,5,7)               0.0000000      SURF                                    
     48     (1,5,8)               0.0000000      SURF                                    
     49     (1,5,9)               0.0000000      SURF                                    
     50     (1,5,10)              0.0000000      SURF                                    
     51     (1,6,1)               0.0000000      SURF                                    
     52     (1,6,2)               0.0000000      SURF                                    
     53     (1,6,3)               0.0000000      SURF                                    
     54     (1,6,4)               0.0000000      SURF                                    
     55     (1,6,5)               0.0000000      SURF                                    
     56     (1,6,6)               0.0000000      SURF                                    
     57     (1,6,7)              -3.18541424E-07 SURF                                    
     58     (1,6,8)               0.0000000      SURF                                    
     59     (1,6,9)               0.0000000      SURF                                    
     60     (1,6,10)              0.0000000      SURF                                    
     61     (1,7,1)               0.0000000      SURF                                    
     62     (1,7,2)               0.0000000      SURF                                    
     63     (1,7,3)               0.0000000      SURF                                    
     64     (1,7,4)               0.0000000      SURF                                    
     65     (1,7,5)               0.0000000      SURF                                    
     66     (1,7,6)               0.0000000      SURF                                    
     67     (1,7,7)               0.0000000      SURF                                    
     68     (1,7,8)               0.0000000      SURF                                    
     69     (1,7,9)               0.0000000      SURF                                    
     70     (1,7,10)              0.0000000      SURF                                    
     71     (1,8,1)               0.0000000      SURF                                    
     72     (1,8,2)               0.0000000      SURF                                    
     73     (1,8,3)               0.0000000      SURF                                    
     74     (1,8,4)               0.0000000      SURF                                    
     75     (1,8,5)               0.0000000      SURF                                    
     76     (1,8,6)               0.0000000      SURF                                    
     77     (1,8,7)               0.0000000      SURF                                    
     78     (1,8,8)               0.0000000      SURF                                    
     79     (1,8,9)               0.0000000      SURF                                    
     80     (1,8,10)              0.0000000      SURF                                    
     81     (1,9,1)               0.0000000      SURF                                    
     82     (1,9,2)               0.0000000      SURF                                    
     83     (1,9,3)               0.0000000      SURF                                    
     84     (1,9,4)               0.0000000      SURF                                    
     85     (1,9,5)               0.0000000      SURF                                    
     86     (1,9,6)               0.0000000      SURF                                    
     87     (1,9,7)               0.0000000      SURF                                    
     88     (1,9,8)               0.0000000      SURF                                    
     89     (1,9,9)               0.0000000      SURF                                    
     90     (1,9,10)              0.0000000      SURF                                    
     91     (1,10,1)              0.0000000      SURF                                    
     92     (1,10,2)              0.0000000      SURF                                    
     93     (1,10,3)              0.0000000      SURF                                    
     94     (1,10,4)              0.0000000      SURF                                    
     95     (1,10,5)              0.0000000      SURF                                    
     96     (1,10,6)              0.0000000      SURF                                    
     97     (1,10,7)              0.0000000      SURF                                    
     98     (1,10,8)              0.0000000      SURF                                    
     99     (1,10,9)              0.0000000      SURF                                    
    100     (1,10,10)             0.0000000      SURF                                    
    101     (1,11,1)              0.0000000      SURF                                    
    102     (1,11,2)              0.0000000      SURF                                    
    103     (1,11,3)              0.0000000      SURF                                    
    104     (1,11,4)              0.0000000      SURF                                    
    105     (1,11,5)              0.0000000      SURF                                    
    106     (1,11,6)              0.0000000      SURF                                    
    107     (1,11,7)              0.0000000      SURF                                    
    108     (1,11,8)              0.0000000      SURF                                    
    109     (1,11,9)              0.0000000      SURF                                    
    110     (1,11,10)             0.0000000      SURF                                    
    111     (1,12,1)              0.0000000      SURF                                    
    112     (1,12,2)              0.0000000      SURF                                    
    113     (1,12,3)              0.0000000      SURF                                    
    114     (1,12,4)              0.0000000      SURF                                    
    115     (1,12,5)              0.0000000      SURF                                    
    116     (1,12,6)              0.0000000      SURF                                    
    117     (1,12,7)              0.0000000      SURF                                    
    118     (1,12,8)              0.0000000      SURF                                    
    119     (1,12,9)              0.0000000      SURF                                    
    120     (1,12,10)             0.0000000      SURF                                    
    121     (1,13,1)              0.0000000      SURF                                    
    122     (1,13,2)              0.0000000      SURF                                    
    123     (1,13,3)              0.0000000      SURF                                    
    124     (1,13,4)              0.0000000      SURF                                    
    125     (1,13,5)              0.0000000      SURF                                    
    126     (1,13,6)              0.0000000      SURF                                    
    127     (1,13,7)              0.0000000      SURF                                    
    128     (1,13,8)              0.0000000      SURF                                    
    129     (1,13,9)              0.0000000      SURF                                    
    130     (1,13,10)             0.0000000      SURF                                    
    131     (1,14,1)              0.0000000      SURF                                    
    132     (1,14,2)              0.0000000      SURF                                    
    133     (1,14,3)              0.0000000      SURF                                    
    134     (1,14,4)              0.0000000      SURF                                    
    135     (1,14,5)              0.0000000      SURF                                    
    136     (1,14,6)              0.0000000      SURF                                    
    137     (1,14,7)              0.0000000      SURF                                    
    138     (1,14,8)              0.0000000      SURF                                    
    139     (1,14,9)              0.0000000      SURF                                    
    140     (1,14,10)             0.0000000      SURF                                    
    141     (1,15,1)              0.0000000      SURF                                    
    142     (1,15,2)              0.0000000      SURF                                    
    143     (1,15,3)              0.0000000      SURF                                    
    144     (1,15,4)              0.0000000      SURF                                    
    145     (1,15,5)              0.0000000      SURF                                    
    146     (1,15,6)              0.0000000      SURF                                    
    147     (1,15,7)              0.0000000      SURF                                    
    148     (1,15,8)              0.0000000      SURF                                    
    149     (1,15,9)              0.0000000      SURF                                    
    150     (1,15,10)             0.0000000      SURF                                    
 ----------------------------------------------------------------------------------------




 API PACKAGE (MAR) FLOW RATES   PERIOD      2   STEP       75
 -----------------------------------------------
   NUMBER   CELLID                    RATE      
 -----------------------------------------------
     1      (1,6,5)               35.722105     
     2      (1,6,6)               35.722105     
     3      (1,6,7)               35.722105     
     4      (1,10,5)              33.024401     
     5      (1,10,6)              33.024401     
     6      (1,10,7)              33.024401     
 -----------------------------------------------



1
  HEAD IN LAYER   1 AT END OF TIME STEP  75 IN STRESS PERIOD    2
  ---------------------------------------------------------------------------

            1           2           3           4           5           6           7           8           9          10
 ........................................................................................................................
   1   1.3185E-02  1.8843E-02  2.9626E-02  4.3430E-02  5.5644E-02  6.0595E-02  5.6209E-02  4.4985E-02  3.3138E-02  2.5935E-02
   2   1.8485E-02  2.7277E-02  4.4685E-02  6.8233E-02  9.0228E-02  9.8978E-02  9.0986E-02  7.0345E-02  4.9556E-02  3.7405E-02
   3   2.7338E-02  4.2251E-02  7.3643E-02  0.1202      0.1680      0.1859      0.1691      0.1232      8.0721E-02  5.7560E-02
   4   3.4567E-02  5.6792E-02  0.1084      0.1974      0.3064      0.3401      0.3077      0.2009      0.1171      7.6563E-02
   5   3.0387E-02  5.4491E-02  0.1218      0.2750      0.5428      0.5854      0.5439      0.2781      0.1292      7.2103E-02
   6   4.7103E-03  1.0887E-02  5.0181E-02  0.2392      0.9996      0.9231       1.000      0.2400      5.1307E-02  1.2780E-02
   7  -3.7683E-02 -8.0506E-02 -0.1932     -0.4389     -0.9539      -2.158     -0.9544     -0.4413     -0.2017     -0.1063    
   8  -6.0874E-02 -0.1342     -0.3521     -0.9464      -2.704      -9.247      -2.705     -0.9507     -0.3660     -0.1755    
   9  -3.9803E-02 -8.3216E-02 -0.1979     -0.4501     -0.9821      -2.192     -0.9828     -0.4529     -0.2070     -0.1099    
  10   1.0227E-03  6.0719E-03  4.1177E-02  0.2139      0.9156      0.8279      0.9158      0.2141      4.1317E-02  6.3129E-03
  11   2.6089E-02  4.9197E-02  0.1138      0.2601      0.5125      0.5507      0.5133      0.2625      0.1201      6.4897E-02
  12   3.0483E-02  5.1883E-02  0.1019      0.1880      0.2930      0.3253      0.2941      0.1910      0.1095      6.9821E-02
  13   2.3968E-02  3.8191E-02  6.8381E-02  0.1134      0.1598      0.1771      0.1606      0.1159      7.4535E-02  5.1962E-02
  14   1.5913E-02  2.4143E-02  4.0593E-02  6.3067E-02  8.4181E-02  9.2562E-02  8.4790E-02  6.4815E-02  4.4758E-02  3.3077E-02
  15   1.1117E-02  1.6298E-02  2.6268E-02  3.9168E-02  5.0666E-02  5.5317E-02  5.1114E-02  4.0432E-02  2.9212E-02  2.2421E-02

 HEAD WILL BE SAVED ON UNIT 1100 AT END OF TIME STEP   75, STRESS PERIOD    2


  VOLUME BUDGET FOR ENTIRE MODEL AT END OF TIME STEP   75, STRESS PERIOD   2
  ---------------------------------------------------------------------------------------------------

     CUMULATIVE VOLUME      L**3       RATES FOR THIS TIME STEP      L**3/T          PACKAGE NAME    
     ------------------                 ------------------------                     ----------------

           IN:                                      IN:
           ---                                      ---
              STO-SS =          24.3138                STO-SS =       9.0565E-03     STORAGE                          
              STO-SY =       60166.4471                STO-SY =          18.8564     STORAGE                          
                 WEL =           0.0000                   WEL =           0.0000     WEL-1                            
                 DRN =           0.0000                   DRN =           0.0000     DRN-0                            
                 API =      153357.2950                   API =         206.2395     MAR                              
                 CHD =       2.0279E-08                   CHD =           0.0000     CHD_0                            

            TOTAL IN =      213548.0559              TOTAL IN =         225.1050

          OUT:                                     OUT:
          ----                                     ----
              STO-SS =          20.7903                STO-SS =       9.5392E-03     STORAGE                          
              STO-SY =       40601.1641                STO-SY =          18.8560     STORAGE                          
                 WEL =      172926.1012                   WEL =         206.2395     WEL-1                            
                 DRN =       2.5075E-04                   DRN =       3.1854E-07     DRN-0                            
                 API =           0.0000                   API =           0.0000     MAR                              
                 CHD =       2.0705E-08                   CHD =           0.0000     CHD_0                            

           TOTAL OUT =      213548.0559             TOTAL OUT =         225.1050

            IN - OUT =      -1.0538E-06              IN - OUT =       8.0050E-10

 PERCENT DISCREPANCY =          -0.00     PERCENT DISCREPANCY =           0.00




         TIME SUMMARY AT END OF TIME STEP   75 IN STRESS PERIOD    2
                    SECONDS     MINUTES      HOURS       DAYS        YEARS
                    -----------------------------------------------------------
   TIME STEP LENGTH 8.64000E+05  14400.      240.00      10.000     2.73785E-02
 STRESS PERIOD TIME 6.48000E+07 1.08000E+06  18000.      750.00      2.0534    
         TOTAL TIME 6.48864E+07 1.08144E+06  18024.      751.00      2.0561    


end timestep


start timestep kper="2" kstp="76" mode="normal"

 UBDSV1 SAVING           STO-SS ON UNIT   1099 AT TIME STEP     76, STRESS PERIOD      2
 UBDSV1 SAVING           STO-SY ON UNIT   1099 AT TIME STEP     76, STRESS PERIOD      2
 UBDSV1 SAVING     FLOW-JA-FACE ON UNIT   1099 AT TIME STEP     76, STRESS PERIOD      2
 UBDSV06 SAVING       DATA-SPDIS IN MODEL GWF              PACKAGE NPF             CONNECTED TO MODEL GWF              PACKAGE NPF              ON UNIT   1099 AT TIME STEP     76, STRESS PERIOD      2
 UBDSV06 SAVING              WEL IN MODEL GWF              PACKAGE GWF             CONNECTED TO MODEL GWF              PACKAGE WEL-1            ON UNIT   1099 AT TIME STEP     76, STRESS PERIOD      2
 UBDSV06 SAVING              DRN IN MODEL GWF              PACKAGE GWF             CONNECTED TO MODEL GWF              PACKAGE DRN-0            ON UNIT   1099 AT TIME STEP     76, STRESS PERIOD      2
 UBDSV06 SAVING              API IN MODEL GWF              PACKAGE GWF             CONNECTED TO MODEL GWF              PACKAGE MAR              ON UNIT   1099 AT TIME STEP     76, STRESS PERIOD      2
 UBDSV06 SAVING              CHD IN MODEL GWF              PACKAGE GWF             CONNECTED TO MODEL GWF              PACKAGE CHD_0            ON UNIT   1099 AT TIME STEP     76, STRESS PERIOD      2

    CALCULATED INTERCELL FLOW FOR PERIOD 2 STEP 76
(1,1,1): (1,1,2) 5.799036E-02 (1,2,1) 5.376415E-02
(1,1,2): (1,1,1) -5.799036E-02 (1,1,3) 0.110430 (1,2,2) 8.535199E-02
(1,1,3): (1,1,2) -0.110430 (1,1,4) 0.141247 (1,2,3) 0.152255
(1,1,4): (1,1,3) -0.141247 (1,1,5) 0.124924 (1,2,4) 0.251010
(1,1,5): (1,1,4) -0.124924 (1,1,6) 5.070420E-02 (1,2,5) 0.350543
(1,1,6): (1,1,5) -5.070420E-02 (1,1,7) -4.469226E-02 (1,2,6) 0.389340
(1,1,7): (1,1,6) 4.469226E-02 (1,1,8) -0.114508 (1,2,7) 0.352557
(1,1,8): (1,1,7) 0.114508 (1,1,9) -0.120869 (1,2,8) 0.256773
(1,1,9): (1,1,8) 0.120869 (1,1,10) -7.348300E-02 (1,2,9) 0.166169
(1,1,10): (1,1,9) 7.348300E-02 (1,2,10) 0.116186
(1,2,1): (1,1,1) -5.376415E-02 (1,2,2) 8.957952E-02 (1,3,1) 8.918347E-02
(1,2,2): (1,1,2) -8.535199E-02 (1,2,1) -8.957952E-02 (1,2,3) 0.177350 (1,3,2) 0.150786
(1,2,3): (1,1,3) -0.152255 (1,2,2) -0.177350 (1,2,4) 0.239991 (1,3,3) 0.292220
(1,2,4): (1,1,4) -0.251010 (1,2,3) -0.239991 (1,2,5) 0.224335 (1,3,4) 0.526349
(1,2,5): (1,1,5) -0.350543 (1,2,4) -0.224335 (1,2,6) 8.938784E-02 (1,3,5) 0.792009
(1,2,6): (1,1,6) -0.389340 (1,2,5) -8.938784E-02 (1,2,7) -8.136573E-02 (1,3,6) 0.886682
(1,2,7): (1,1,7) -0.352557 (1,2,6) 8.136573E-02 (1,2,8) -0.210159 (1,3,7) 0.795152
(1,2,8): (1,1,8) -0.256773 (1,2,7) 0.210159 (1,2,9) -0.211432 (1,3,8) 0.535436
(1,2,9): (1,1,9) -0.166169 (1,2,8) 0.211432 (1,2,10) -0.123444 (1,3,9) 0.314772
(1,2,10): (1,1,10) -0.116186 (1,2,9) 0.123444 (1,3,10) 0.203241
(1,3,1): (1,2,1) -8.918347E-02 (1,3,2) 0.151182 (1,4,1) 7.123873E-02
(1,3,2): (1,2,2) -0.150786 (1,3,1) -0.151182 (1,3,3) 0.318821 (1,4,2) 0.144491
(1,3,3): (1,2,3) -0.292220 (1,3,2) -0.318821 (1,3,4) 0.474001 (1,4,3) 0.349056
(1,3,4): (1,2,4) -0.526349 (1,3,3) -0.474001 (1,3,5) 0.489225 (1,4,4) 0.784619
(1,3,5): (1,2,5) -0.792009 (1,3,4) -0.489225 (1,3,6) 0.183429 (1,4,5) 1.42465
(1,3,6): (1,2,6) -0.886682 (1,3,5) -0.183429 (1,3,7) -0.172275 (1,4,6) 1.59287
(1,3,7): (1,2,7) -0.795152 (1,3,6) 0.172275 (1,3,8) -0.469064 (1,4,7) 1.42680
(1,3,8): (1,2,8) -0.535436 (1,3,7) 0.469064 (1,3,9) -0.431875 (1,4,8) 0.790886
(1,3,9): (1,2,9) -0.314772 (1,3,8) 0.431875 (1,3,10) -0.234888 (1,4,9) 0.365723
(1,3,10): (1,2,10) -0.203241 (1,3,9) 0.234888 (1,4,10) 0.188976
(1,4,1): (1,3,1) -7.123873E-02 (1,4,2) 0.224492 (1,5,1) -4.610898E-02
(1,4,2): (1,3,2) -0.144491 (1,4,1) -0.224492 (1,4,3) 0.523734 (1,5,2) -2.842710E-02
(1,4,3): (1,3,3) -0.349056 (1,4,2) -0.523734 (1,4,4) 0.910085 (1,5,3) 0.128595
(1,4,4): (1,3,4) -0.784619 (1,4,3) -0.910085 (1,4,5) 1.12749 (1,5,4) 0.790972
(1,4,5): (1,3,5) -1.42465 (1,4,4) -1.12749 (1,4,6) 0.349747 (1,5,5) 2.48568
(1,4,6): (1,3,6) -1.59287 (1,4,5) -0.349747 (1,4,7) -0.336446 (1,5,6) 2.59075
(1,4,7): (1,3,7) -1.42680 (1,4,6) 0.336446 (1,4,8) -1.10306 (1,5,7) 2.48373
(1,4,8): (1,3,8) -0.790886 (1,4,7) 1.10306 (1,4,9) -0.857307 (1,5,8) 0.784975
(1,4,9): (1,3,9) -0.365723 (1,4,8) 0.857307 (1,4,10) -0.411714 (1,5,9) 0.114403
(1,4,10): (1,3,10) -0.188976 (1,4,9) 0.411714 (1,5,10) -5.238534E-02
(1,5,1): (1,4,1) 4.610898E-02 (1,5,2) 0.242209 (1,6,1) -0.264094
(1,5,2): (1,4,2) 2.842710E-02 (1,5,1) -0.242209 (1,5,3) 0.681597 (1,6,2) -0.446678
(1,5,3): (1,4,3) -0.128595 (1,5,2) -0.681597 (1,5,4) 1.57738 (1,6,3) -0.735258
(1,5,4): (1,4,4) -0.790972 (1,5,3) -1.57738 (1,5,5) 2.82734 (1,6,4) -0.379456
(1,5,5): (1,4,5) -2.48568 (1,5,4) -2.82734 (1,5,6) 0.453008 (1,6,5) 5.01651
(1,5,6): (1,4,6) -2.59075 (1,5,5) -0.453008 (1,5,7) -0.441601 (1,6,6) 3.68157
(1,5,7): (1,4,7) -2.48373 (1,5,6) 0.441601 (1,5,8) -2.80670 (1,6,7) 5.00852
(1,5,8): (1,4,8) -0.784975 (1,5,7) 2.80670 (1,5,9) -1.53261 (1,6,8) -0.403853
(1,5,9): (1,4,9) -0.114403 (1,5,8) 1.53261 (1,5,10) -0.579232 (1,6,9) -0.801503
(1,5,10): (1,4,10) 5.238534E-02 (1,5,9) 0.579232 (1,6,10) -0.609063
(1,6,1): (1,5,1) 0.264094 (1,6,2) 5.999233E-02 (1,7,1) -0.430457
(1,6,2): (1,5,2) 0.446678 (1,6,1) -5.999233E-02 (1,6,3) 0.393166 (1,7,2) -0.922967
(1,6,3): (1,5,3) 0.735258 (1,6,2) -0.393166 (1,6,4) 1.93735 (1,7,3) -2.45656
(1,6,4): (1,5,4) 0.379456 (1,6,3) -1.93735 (1,6,5) 8.37235 (1,7,4) -6.95631
(1,6,5): (1,5,5) -5.01651 (1,6,4) -8.37235 (1,6,6) -0.838549 (1,7,5) -21.5045
(1,6,6): (1,5,6) -3.68157 (1,6,5) 0.838549 (1,6,7) 0.842289 (1,7,6) -33.6656
(1,6,7): (1,5,7) -5.00852 (1,6,6) -0.842289 (1,6,8) -8.36861 (1,7,7) -21.5151
(1,6,8): (1,5,8) 0.403853 (1,6,7) 8.36861 (1,6,9) -1.93464 (1,7,8) -6.99020
(1,6,9): (1,5,9) 0.801503 (1,6,8) 1.93464 (1,6,10) -0.387201 (1,7,9) -2.55583
(1,6,10): (1,5,10) 0.609063 (1,6,9) 0.387201 (1,7,10) -1.20301
(1,7,1): (1,6,1) 0.430457 (1,7,2) -0.430144 (1,8,1) -0.233691
(1,7,2): (1,6,2) 0.922967 (1,7,1) 0.430144 (1,7,3) -1.12196 (1,8,2) -0.536302
(1,7,3): (1,6,3) 2.45656 (1,7,2) 1.12196 (1,7,4) -2.40957 (1,8,3) -1.56352
(1,7,4): (1,6,4) 6.95631 (1,7,3) 2.40957 (1,7,5) -4.91756 (1,8,4) -4.85891
(1,7,5): (1,6,5) 21.5045 (1,7,4) 4.91756 (1,7,6) -10.8824 (1,8,5) -15.8331
(1,7,6): (1,6,6) 33.6656 (1,7,5) 10.8824 (1,7,7) 10.8765 (1,8,6) -55.5894
(1,7,7): (1,6,7) 21.5151 (1,7,6) -10.8765 (1,7,8) 4.89724 (1,8,7) -15.8379
(1,7,8): (1,6,8) 6.99020 (1,7,7) -4.89724 (1,7,9) 2.34555 (1,8,8) -4.87597
(1,7,9): (1,6,9) 2.55583 (1,7,8) -2.34555 (1,7,10) 0.945823 (1,8,9) -1.61538
(1,7,10): (1,6,10) 1.20301 (1,7,9) -0.945823 (1,8,10) -0.689592
(1,8,1): (1,7,1) 0.233691 (1,8,2) -0.733359 (1,9,1) 0.212480
(1,8,2): (1,7,2) 0.536302 (1,8,1) 0.733359 (1,8,3) -2.15540 (1,9,2) 0.508813
(1,8,3): (1,7,3) 1.56352 (1,8,2) 2.15540 (1,8,4) -5.73507 (1,9,3) 1.51440
(1,8,4): (1,7,4) 4.85891 (1,8,3) 5.73507 (1,8,5) -15.8993 (1,9,4) 4.73845
(1,8,5): (1,7,5) 15.8331 (1,8,4) 15.8993 (1,8,6) -47.7166 (1,9,5) 15.5114
(1,8,6): (1,7,6) 55.5894 (1,8,5) 47.7166 (1,8,7) 47.6997 (1,9,6) 55.0508
(1,8,7): (1,7,7) 15.8379 (1,8,6) -47.6997 (1,8,8) 15.8620 (1,9,7) 15.5147
(1,8,8): (1,7,8) 4.87597 (1,8,7) -15.8620 (1,8,9) 5.63187 (1,9,8) 4.75230
(1,8,9): (1,7,9) 1.61538 (1,8,8) -5.63187 (1,8,10) 1.87408 (1,9,9) 1.56048
(1,8,10): (1,7,10) 0.689592 (1,8,9) -1.87408 (1,9,10) 0.652645
(1,9,1): (1,8,1) -0.212480 (1,9,2) -0.436352 (1,10,1) 0.414553
(1,9,2): (1,8,2) -0.508813 (1,9,1) 0.436352 (1,9,3) -1.14321 (1,10,2) 0.901109
(1,9,3): (1,8,3) -1.51440 (1,9,2) 1.14321 (1,9,4) -2.47743 (1,10,3) 2.40948
(1,9,4): (1,8,4) -4.73845 (1,9,3) 2.47743 (1,9,5) -5.08230 (1,10,4) 6.78787
(1,9,5): (1,8,5) -15.5114 (1,9,4) 5.08230 (1,9,6) -10.9031 (1,10,5) 20.7043
(1,9,6): (1,8,6) -55.0508 (1,9,5) 10.9031 (1,9,7) 10.8958 (1,10,6) 32.6768
(1,9,7): (1,8,7) -15.5147 (1,9,6) -10.8958 (1,9,8) 5.06006 (1,10,7) 20.7138
(1,9,8): (1,8,8) -4.75230 (1,9,7) -5.06006 (1,9,9) 2.41066 (1,10,8) 6.81935
(1,9,9): (1,8,9) -1.56048 (1,9,8) -2.41066 (1,9,10) 0.963306 (1,10,9) 2.50439
(1,9,10): (1,8,10) -0.652645 (1,9,9) -0.963306 (1,10,10) 1.17379
(1,10,1): (1,9,1) -0.414553 (1,10,2) 4.797915E-02 (1,11,1) 0.257870
(1,10,2): (1,9,2) -0.901109 (1,10,1) -4.797915E-02 (1,10,3) 0.347668 (1,11,2) 0.441943
(1,10,3): (1,9,3) -2.40948 (1,10,2) -0.347668 (1,10,4) 1.75556 (1,11,3) 0.746801
(1,10,4): (1,9,4) -6.78787 (1,10,3) -1.75556 (1,10,5) 7.64200 (1,11,4) 0.491554
(1,10,5): (1,9,5) -20.7043 (1,10,4) -7.64200 (1,10,6) -0.959861 (1,11,5) -4.37005
(1,10,6): (1,9,6) -32.6768 (1,10,5) 0.959861 (1,10,7) 0.961322 (1,11,6) -2.96984
(1,10,7): (1,9,7) -20.7138 (1,10,6) -0.961322 (1,10,8) -7.64150 (1,11,7) -4.36254
(1,10,8): (1,9,8) -6.81935 (1,10,7) 7.64150 (1,10,9) -1.75757 (1,11,8) 0.514901
(1,10,9): (1,9,9) -2.50439 (1,10,8) 1.75757 (1,10,10) -0.348411 (1,11,9) 0.811143
(1,10,10): (1,9,10) -1.17379 (1,10,9) 0.348411 (1,11,10) 0.601567
(1,11,1): (1,10,1) -0.257870 (1,11,2) 0.231670 (1,12,1) 4.816587E-02
(1,11,2): (1,10,2) -0.441943 (1,11,1) -0.231670 (1,11,3) 0.652246 (1,12,2) 3.256078E-02
(1,11,3): (1,10,3) -0.746801 (1,11,2) -0.652246 (1,11,4) 1.49777 (1,12,3) -0.112637
(1,11,4): (1,10,4) -0.491554 (1,11,3) -1.49777 (1,11,5) 2.64824 (1,12,4) -0.726711
(1,11,5): (1,10,5) 4.37005 (1,11,4) -2.64824 (1,11,6) 0.402395 (1,12,5) -2.28886
(1,11,6): (1,10,6) 2.96984 (1,11,5) -0.402395 (1,11,7) -0.393685 (1,12,6) -2.35936
(1,11,7): (1,10,7) 4.36254 (1,11,6) 0.393685 (1,11,8) -2.63137 (1,12,7) -2.28677
(1,11,8): (1,10,8) -0.514901 (1,11,7) 2.63137 (1,11,9) -1.45857 (1,12,8) -0.720436
(1,11,9): (1,10,9) -0.811143 (1,11,8) 1.45857 (1,11,10) -0.557476 (1,12,9) -9.800161E-02
(1,11,10): (1,10,10) -0.601567 (1,11,9) 0.557476 (1,12,10) 5.731866E-02
(1,12,1): (1,11,1) -4.816587E-02 (1,12,2) 0.216036 (1,13,1) -6.417044E-02
(1,12,2): (1,11,2) -3.256078E-02 (1,12,1) -0.216036 (1,12,3) 0.506293 (1,13,2) -0.135894
(1,12,3): (1,11,3) 0.112637 (1,12,2) -0.506293 (1,12,4) 0.879214 (1,13,3) -0.335326
(1,12,4): (1,11,4) 0.726711 (1,12,3) -0.879214 (1,12,5) 1.08107 (1,13,4) -0.755760
(1,12,5): (1,11,5) 2.28886 (1,12,4) -1.08107 (1,12,6) 0.332989 (1,13,5) -1.36530
(1,12,6): (1,11,6) 2.35936 (1,12,5) -0.332989 (1,12,7) -0.322230 (1,13,6) -1.52311
(1,12,7): (1,11,7) 2.28677 (1,12,6) 0.322230 (1,12,8) -1.06021 (1,13,7) -1.36696
(1,12,8): (1,11,8) 0.720436 (1,12,7) 1.06021 (1,12,9) -0.831786 (1,13,8) -0.760937
(1,12,9): (1,11,9) 9.800161E-02 (1,12,8) 0.831786 (1,12,10) -0.401490 (1,13,9) -0.350067
(1,12,10): (1,11,10) -5.731866E-02 (1,12,9) 0.401490 (1,13,10) -0.177397
(1,13,1): (1,12,1) 6.417044E-02 (1,13,2) 0.144256 (1,14,1) -8.127940E-02
(1,13,2): (1,12,2) 0.135894 (1,13,1) -0.144256 (1,13,3) 0.306527 (1,14,2) -0.141567
(1,13,3): (1,12,3) 0.335326 (1,13,2) -0.306527 (1,13,4) 0.458283 (1,14,3) -0.280315
(1,13,4): (1,12,4) 0.755760 (1,13,3) -0.458283 (1,13,5) 0.473149 (1,14,4) -0.509648
(1,13,5): (1,12,5) 1.36530 (1,13,4) -0.473149 (1,13,6) 0.176888 (1,14,5) -0.768309
(1,13,6): (1,12,6) 1.52311 (1,13,5) -0.176888 (1,13,7) -0.167793 (1,14,6) -0.860241
(1,13,7): (1,12,7) 1.36696 (1,13,6) 0.167793 (1,13,8) -0.455914 (1,14,7) -0.770936
(1,13,8): (1,12,8) 0.760937 (1,13,7) 0.455914 (1,13,9) -0.420638 (1,14,8) -0.517529
(1,13,9): (1,12,9) 0.350067 (1,13,8) 0.420638 (1,13,10) -0.228734 (1,14,9) -0.300669
(1,13,10): (1,12,10) 0.177397 (1,13,9) 0.228734 (1,14,10) -0.190575
(1,14,1): (1,13,1) 8.127940E-02 (1,14,2) 8.396697E-02 (1,15,1) -4.876661E-02
(1,14,2): (1,13,2) 0.141567 (1,14,1) -8.396697E-02 (1,14,3) 0.167744 (1,15,2) -7.950496E-02
(1,14,3): (1,13,3) 0.280315 (1,14,2) -0.167744 (1,14,4) 0.229064 (1,15,3) -0.144947
(1,14,4): (1,13,4) 0.509648 (1,14,3) -0.229064 (1,14,5) 0.215221 (1,15,4) -0.241867
(1,14,5): (1,13,5) 0.768309 (1,14,4) -0.215221 (1,14,6) 8.555397E-02 (1,15,5) -0.339514
(1,14,6): (1,13,6) 0.860241 (1,14,5) -8.555397E-02 (1,14,7) -7.907688E-02 (1,15,6) -0.377518
(1,14,7): (1,13,7) 0.770936 (1,14,6) 7.907688E-02 (1,14,8) -0.203272 (1,15,7) -0.341211
(1,14,8): (1,13,8) 0.517529 (1,14,7) 0.203272 (1,14,9) -0.203982 (1,15,8) -0.246878
(1,14,9): (1,13,9) 0.300669 (1,14,8) 0.203982 (1,14,10) -0.118718 (1,15,9) -0.157467
(1,14,10): (1,13,10) 0.190575 (1,14,9) 0.118718 (1,15,10) -0.108115
(1,15,1): (1,14,1) 4.876661E-02 (1,15,2) 5.322726E-02
(1,15,2): (1,14,2) 7.950496E-02 (1,15,1) -5.322726E-02 (1,15,3) 0.102287
(1,15,3): (1,14,3) 0.144947 (1,15,2) -0.102287 (1,15,4) 0.132156
(1,15,4): (1,14,4) 0.241867 (1,15,3) -0.132156 (1,15,5) 0.117692
(1,15,5): (1,14,5) 0.339514 (1,15,4) -0.117692 (1,15,6) 4.765874E-02
(1,15,6): (1,14,6) 0.377518 (1,15,5) -4.765874E-02 (1,15,7) -4.287579E-02
(1,15,7): (1,14,7) 0.341211 (1,15,6) 4.287579E-02 (1,15,8) -0.109066
(1,15,8): (1,14,8) 0.246878 (1,15,7) 0.109066 (1,15,9) -0.114608
(1,15,9): (1,14,9) 0.157467 (1,15,8) 0.114608 (1,15,10) -6.938442E-02
(1,15,10): (1,14,10) 0.108115 (1,15,9) 6.938442E-02

 WEL PACKAGE (WEL-1) FLOW RATES   PERIOD      2   STEP       76
 ----------------------------------------------------------------------------------------
   NUMBER   CELLID                    RATE       NAME                                    
 ----------------------------------------------------------------------------------------
     1      (1,8,6)              -206.12713      WEL                                     
 ----------------------------------------------------------------------------------------




 DRN PACKAGE (DRN-0) FLOW RATES   PERIOD      2   STEP       76
 ----------------------------------------------------------------------------------------
   NUMBER   CELLID                    RATE       NAME                                    
 ----------------------------------------------------------------------------------------
     1      (1,1,1)               0.0000000      SURF                                    
     2      (1,1,2)               0.0000000      SURF                                    
     3      (1,1,3)               0.0000000      SURF                                    
     4      (1,1,4)               0.0000000      SURF                                    
     5      (1,1,5)               0.0000000      SURF                                    
     6      (1,1,6)               0.0000000      SURF                                    
     7      (1,1,7)               0.0000000      SURF                                    
     8      (1,1,8)               0.0000000      SURF                                    
     9      (1,1,9)               0.0000000      SURF                                    
     10     (1,1,10)              0.0000000      SURF                                    
     11     (1,2,1)               0.0000000      SURF                                    
     12     (1,2,2)               0.0000000      SURF                                    
     13     (1,2,3)               0.0000000      SURF                                    
     14     (1,2,4)               0.0000000      SURF                                    
     15     (1,2,5)               0.0000000      SURF                                    
     16     (1,2,6)               0.0000000      SURF                                    
     17     (1,2,7)               0.0000000      SURF                                    
     18     (1,2,8)               0.0000000      SURF                                    
     19     (1,2,9)               0.0000000      SURF                                    
     20     (1,2,10)              0.0000000      SURF                                    
     21     (1,3,1)               0.0000000      SURF                                    
     22     (1,3,2)               0.0000000      SURF                                    
     23     (1,3,3)               0.0000000      SURF                                    
     24     (1,3,4)               0.0000000      SURF                                    
     25     (1,3,5)               0.0000000      SURF                                    
     26     (1,3,6)               0.0000000      SURF                                    
     27     (1,3,7)               0.0000000      SURF                                    
     28     (1,3,8)               0.0000000      SURF                                    
     29     (1,3,9)               0.0000000      SURF                                    
     30     (1,3,10)              0.0000000      SURF                                    
     31     (1,4,1)               0.0000000      SURF                                    
     32     (1,4,2)               0.0000000      SURF                                    
     33     (1,4,3)               0.0000000      SURF                                    
     34     (1,4,4)               0.0000000      SURF                                    
     35     (1,4,5)               0.0000000      SURF                                    
     36     (1,4,6)               0.0000000      SURF                                    
     37     (1,4,7)               0.0000000      SURF                                    
     38     (1,4,8)               0.0000000      SURF                                    
     39     (1,4,9)               0.0000000      SURF                                    
     40     (1,4,10)              0.0000000      SURF                                    
     41     (1,5,1)               0.0000000      SURF                                    
     42     (1,5,2)               0.0000000      SURF                                    
     43     (1,5,3)               0.0000000      SURF                                    
     44     (1,5,4)               0.0000000      SURF                                    
     45     (1,5,5)               0.0000000      SURF                                    
     46     (1,5,6)               0.0000000      SURF                                    
     47     (1,5,7)               0.0000000      SURF                                    
     48     (1,5,8)               0.0000000      SURF                                    
     49     (1,5,9)               0.0000000      SURF                                    
     50     (1,5,10)              0.0000000      SURF                                    
     51     (1,6,1)               0.0000000      SURF                                    
     52     (1,6,2)               0.0000000      SURF                                    
     53     (1,6,3)               0.0000000      SURF                                    
     54     (1,6,4)               0.0000000      SURF                                    
     55     (1,6,5)               0.0000000      SURF                                    
     56     (1,6,6)               0.0000000      SURF                                    
     57     (1,6,7)              -3.17726517E-07 SURF                                    
     58     (1,6,8)               0.0000000      SURF                                    
     59     (1,6,9)               0.0000000      SURF                                    
     60     (1,6,10)              0.0000000      SURF                                    
     61     (1,7,1)               0.0000000      SURF                                    
     62     (1,7,2)               0.0000000      SURF                                    
     63     (1,7,3)               0.0000000      SURF                                    
     64     (1,7,4)               0.0000000      SURF                                    
     65     (1,7,5)               0.0000000      SURF                                    
     66     (1,7,6)               0.0000000      SURF                                    
     67     (1,7,7)               0.0000000      SURF                                    
     68     (1,7,8)               0.0000000      SURF                                    
     69     (1,7,9)               0.0000000      SURF                                    
     70     (1,7,10)              0.0000000      SURF                                    
     71     (1,8,1)               0.0000000      SURF                                    
     72     (1,8,2)               0.0000000      SURF                                    
     73     (1,8,3)               0.0000000      SURF                                    
     74     (1,8,4)               0.0000000      SURF                                    
     75     (1,8,5)               0.0000000      SURF                                    
     76     (1,8,6)               0.0000000      SURF                                    
     77     (1,8,7)               0.0000000      SURF                                    
     78     (1,8,8)               0.0000000      SURF                                    
     79     (1,8,9)               0.0000000      SURF                                    
     80     (1,8,10)              0.0000000      SURF                                    
     81     (1,9,1)               0.0000000      SURF                                    
     82     (1,9,2)               0.0000000      SURF                                    
     83     (1,9,3)               0.0000000      SURF                                    
     84     (1,9,4)               0.0000000      SURF                                    
     85     (1,9,5)               0.0000000      SURF                                    
     86     (1,9,6)               0.0000000      SURF                                    
     87     (1,9,7)               0.0000000      SURF                                    
     88     (1,9,8)               0.0000000      SURF                                    
     89     (1,9,9)               0.0000000      SURF                                    
     90     (1,9,10)              0.0000000      SURF                                    
     91     (1,10,1)              0.0000000      SURF                                    
     92     (1,10,2)              0.0000000      SURF                                    
     93     (1,10,3)              0.0000000      SURF                                    
     94     (1,10,4)              0.0000000      SURF                                    
     95     (1,10,5)              0.0000000      SURF                                    
     96     (1,10,6)              0.0000000      SURF                                    
     97     (1,10,7)              0.0000000      SURF                                    
     98     (1,10,8)              0.0000000      SURF                                    
     99     (1,10,9)              0.0000000      SURF                                    
    100     (1,10,10)             0.0000000      SURF                                    
    101     (1,11,1)              0.0000000      SURF                                    
    102     (1,11,2)              0.0000000      SURF                                    
    103     (1,11,3)              0.0000000      SURF                                    
    104     (1,11,4)              0.0000000      SURF                                    
    105     (1,11,5)              0.0000000      SURF                                    
    106     (1,11,6)              0.0000000      SURF                                    
    107     (1,11,7)              0.0000000      SURF                                    
    108     (1,11,8)              0.0000000      SURF                                    
    109     (1,11,9)              0.0000000      SURF                                    
    110     (1,11,10)             0.0000000      SURF                                    
    111     (1,12,1)              0.0000000      SURF                                    
    112     (1,12,2)              0.0000000      SURF                                    
    113     (1,12,3)              0.0000000      SURF                                    
    114     (1,12,4)              0.0000000      SURF                                    
    115     (1,12,5)              0.0000000      SURF                                    
    116     (1,12,6)              0.0000000      SURF                                    
    117     (1,12,7)              0.0000000      SURF                                    
    118     (1,12,8)              0.0000000      SURF                                    
    119     (1,12,9)              0.0000000      SURF                                    
    120     (1,12,10)             0.0000000      SURF                                    
    121     (1,13,1)              0.0000000      SURF                                    
    122     (1,13,2)              0.0000000      SURF                                    
    123     (1,13,3)              0.0000000      SURF                                    
    124     (1,13,4)              0.0000000      SURF                                    
    125     (1,13,5)              0.0000000      SURF                                    
    126     (1,13,6)              0.0000000      SURF                                    
    127     (1,13,7)              0.0000000      SURF                                    
    128     (1,13,8)              0.0000000      SURF                                    
    129     (1,13,9)              0.0000000      SURF                                    
    130     (1,13,10)             0.0000000      SURF                                    
    131     (1,14,1)              0.0000000      SURF                                    
    132     (1,14,2)              0.0000000      SURF                                    
    133     (1,14,3)              0.0000000      SURF                                    
    134     (1,14,4)              0.0000000      SURF                                    
    135     (1,14,5)              0.0000000      SURF                                    
    136     (1,14,6)              0.0000000      SURF                                    
    137     (1,14,7)              0.0000000      SURF                                    
    138     (1,14,8)              0.0000000      SURF                                    
    139     (1,14,9)              0.0000000      SURF                                    
    140     (1,14,10)             0.0000000      SURF                                    
    141     (1,15,1)              0.0000000      SURF                                    
    142     (1,15,2)              0.0000000      SURF                                    
    143     (1,15,3)              0.0000000      SURF                                    
    144     (1,15,4)              0.0000000      SURF                                    
    145     (1,15,5)              0.0000000      SURF                                    
    146     (1,15,6)              0.0000000      SURF                                    
    147     (1,15,7)              0.0000000      SURF                                    
    148     (1,15,8)              0.0000000      SURF                                    
    149     (1,15,9)              0.0000000      SURF                                    
    150     (1,15,10)             0.0000000      SURF                                    
 ----------------------------------------------------------------------------------------




 API PACKAGE (MAR) FLOW RATES   PERIOD      2   STEP       76
 -----------------------------------------------
   NUMBER   CELLID                    RATE      
 -----------------------------------------------
     1      (1,6,5)               35.734560     
     2      (1,6,6)               35.734560     
     3      (1,6,7)               35.734560     
     4      (1,10,5)              32.974482     
     5      (1,10,6)              32.974482     
     6      (1,10,7)              32.974482     
 -----------------------------------------------



1
  HEAD IN LAYER   1 AT END OF TIME STEP  76 IN STRESS PERIOD    2
  ---------------------------------------------------------------------------

            1           2           3           4           5           6           7           8           9          10
 ........................................................................................................................
   1   1.3744E-02  1.9532E-02  3.0541E-02  4.4603E-02  5.7025E-02  6.2064E-02  5.7622E-02  4.6237E-02  3.4206E-02  2.6882E-02
   2   1.9110E-02  2.8043E-02  4.5697E-02  6.9531E-02  9.1760E-02  0.1006      9.2554E-02  7.1731E-02  5.0739E-02  3.8456E-02
   3   2.8003E-02  4.3057E-02  7.4703E-02  0.1215      0.1696      0.1876      0.1707      0.1246      8.1960E-02  5.8662E-02
   4   3.5102E-02  5.7423E-02  0.1092      0.1985      0.3078      0.3417      0.3091      0.2021      0.1181      7.7414E-02
   5   3.0508E-02  5.4597E-02  0.1219      0.2754      0.5436      0.5864      0.5447      0.2785      0.1294      7.2216E-02
   6   4.1787E-03  1.0172E-02  4.9296E-02  0.2385      0.9997      0.9234       1.000      0.2392      5.0273E-02  1.1747E-02
   7  -3.8849E-02 -8.2031E-02 -0.1952     -0.4409     -0.9553      -2.159     -0.9559     -0.4435     -0.2040     -0.1084    
   8  -6.2309E-02 -0.1361     -0.3546     -0.9492      -2.706      -9.248      -2.707     -0.9537     -0.3689     -0.1781    
   9  -4.0974E-02 -8.4789E-02 -0.2001     -0.4529     -0.9852      -2.195     -0.9859     -0.4558     -0.2095     -0.1121    
  10   4.7949E-04  5.2749E-03  3.9903E-02  0.2118      0.9121      0.8242      0.9123      0.2120      3.9897E-02  5.1944E-03
  11   2.6199E-02  4.9253E-02  0.1137      0.2597      0.5117      0.5498      0.5125      0.2622      0.1200      6.4963E-02
  12   3.1001E-02  5.2492E-02  0.1026      0.1889      0.2939      0.3262      0.2950      0.1920      0.1104      7.0655E-02
  13   2.4604E-02  3.8973E-02  6.9415E-02  0.1147      0.1613      0.1787      0.1622      0.1173      7.5741E-02  5.3039E-02
  14   1.6496E-02  2.4871E-02  4.1576E-02  6.4336E-02  8.5676E-02  9.4151E-02  8.6317E-02  6.6164E-02  4.5900E-02  3.4082E-02
  15   1.1627E-02  1.6941E-02  2.7142E-02  4.0304E-02  5.2013E-02  5.6752E-02  5.2488E-02  4.1638E-02  3.0225E-02  2.3308E-02

 HEAD WILL BE SAVED ON UNIT 1100 AT END OF TIME STEP   76, STRESS PERIOD    2


  VOLUME BUDGET FOR ENTIRE MODEL AT END OF TIME STEP   76, STRESS PERIOD   2
  ---------------------------------------------------------------------------------------------------

     CUMULATIVE VOLUME      L**3       RATES FOR THIS TIME STEP      L**3/T          PACKAGE NAME    
     ------------------                 ------------------------                     ----------------

           IN:                                      IN:
           ---                                      ---
              STO-SS =          24.4033                STO-SS =       8.9526E-03     STORAGE                          
              STO-SY =       60352.7450                STO-SY =          18.6298     STORAGE                          
                 WEL =           0.0000                   WEL =           0.0000     WEL-1                            
                 DRN =           0.0000                   DRN =           0.0000     DRN-0                            
                 API =      155418.5663                   API =         206.1271     MAR                              
                 CHD =       2.0279E-08                   CHD =           0.0000     CHD_0                            

            TOTAL IN =      215795.7146              TOTAL IN =         224.7659

          OUT:                                     OUT:
          ----                                     ----
              STO-SS =          20.8846                STO-SS =       9.4246E-03     STORAGE                          
              STO-SY =       40787.4573                STO-SY =          18.6293     STORAGE                          
                 WEL =      174987.3725                   WEL =         206.1271     WEL-1                            
                 DRN =       2.5393E-04                   DRN =       3.1773E-07     DRN-0                            
                 API =           0.0000                   API =           0.0000     MAR                              
                 CHD =       2.0705E-08                   CHD =           0.0000     CHD_0                            

           TOTAL OUT =      215795.7146             TOTAL OUT =         224.7659

            IN - OUT =      -1.0459E-06              IN - OUT =       7.8805E-10

 PERCENT DISCREPANCY =          -0.00     PERCENT DISCREPANCY =           0.00




         TIME SUMMARY AT END OF TIME STEP   76 IN STRESS PERIOD    2
                    SECONDS     MINUTES      HOURS       DAYS        YEARS
                    -----------------------------------------------------------
   TIME STEP LENGTH 8.64000E+05  14400.      240.00      10.000     2.73785E-02
 STRESS PERIOD TIME 6.56640E+07 1.09440E+06  18240.      760.00      2.0808    
         TOTAL TIME 6.57504E+07 1.09584E+06  18264.      761.00      2.0835    


end timestep


start timestep kper="2" kstp="77" mode="normal"

 UBDSV1 SAVING           STO-SS ON UNIT   1099 AT TIME STEP     77, STRESS PERIOD      2
 UBDSV1 SAVING           STO-SY ON UNIT   1099 AT TIME STEP     77, STRESS PERIOD      2
 UBDSV1 SAVING     FLOW-JA-FACE ON UNIT   1099 AT TIME STEP     77, STRESS PERIOD      2
 UBDSV06 SAVING       DATA-SPDIS IN MODEL GWF              PACKAGE NPF             CONNECTED TO MODEL GWF              PACKAGE NPF              ON UNIT   1099 AT TIME STEP     77, STRESS PERIOD      2
 UBDSV06 SAVING              WEL IN MODEL GWF              PACKAGE GWF             CONNECTED TO MODEL GWF              PACKAGE WEL-1            ON UNIT   1099 AT TIME STEP     77, STRESS PERIOD      2
 UBDSV06 SAVING              DRN IN MODEL GWF              PACKAGE GWF             CONNECTED TO MODEL GWF              PACKAGE DRN-0            ON UNIT   1099 AT TIME STEP     77, STRESS PERIOD      2
 UBDSV06 SAVING              API IN MODEL GWF              PACKAGE GWF             CONNECTED TO MODEL GWF              PACKAGE MAR              ON UNIT   1099 AT TIME STEP     77, STRESS PERIOD      2
 UBDSV06 SAVING              CHD IN MODEL GWF              PACKAGE GWF             CONNECTED TO MODEL GWF              PACKAGE CHD_0            ON UNIT   1099 AT TIME STEP     77, STRESS PERIOD      2

    CALCULATED INTERCELL FLOW FOR PERIOD 2 STEP 77
(1,1,1): (1,1,2) 5.928658E-02 (1,2,1) 5.439042E-02
(1,1,2): (1,1,1) -5.928658E-02 (1,1,3) 0.112688 (1,2,2) 8.607979E-02
(1,1,3): (1,1,2) -0.112688 (1,1,4) 0.143828 (1,2,3) 0.153182
(1,1,4): (1,1,3) -0.143828 (1,1,5) 0.127012 (1,2,4) 0.252211
(1,1,5): (1,1,4) -0.127012 (1,1,6) 5.159203E-02 (1,2,5) 0.352015
(1,1,6): (1,1,5) -5.159203E-02 (1,1,7) -4.524701E-02 (1,2,6) 0.390940
(1,1,7): (1,1,6) 4.524701E-02 (1,1,8) -0.116118 (1,2,7) 0.354071
(1,1,8): (1,1,7) 0.116118 (1,1,9) -0.122701 (1,2,8) 0.258072
(1,1,9): (1,1,8) 0.122701 (1,1,10) -7.466740E-02 (1,2,9) 0.167264
(1,1,10): (1,1,9) 7.466740E-02 (1,2,10) 0.117171
(1,2,1): (1,1,1) -5.439042E-02 (1,2,2) 9.097749E-02 (1,3,1) 8.952931E-02
(1,2,2): (1,1,2) -8.607979E-02 (1,2,1) -9.097749E-02 (1,2,3) 0.179808 (1,3,2) 0.151122
(1,2,3): (1,1,3) -0.153182 (1,2,2) -0.179808 (1,2,4) 0.242848 (1,3,3) 0.292621
(1,2,4): (1,1,4) -0.252211 (1,2,3) -0.242848 (1,2,5) 0.226694 (1,3,4) 0.526993
(1,2,5): (1,1,5) -0.352015 (1,2,4) -0.226694 (1,2,6) 9.040330E-02 (1,3,5) 0.793023
(1,2,6): (1,1,6) -0.390940 (1,2,5) -9.040330E-02 (1,2,7) -8.200464E-02 (1,3,6) 0.887895
(1,2,7): (1,1,7) -0.354071 (1,2,6) 8.200464E-02 (1,2,8) -0.211985 (1,3,7) 0.796202
(1,2,8): (1,1,8) -0.258072 (1,2,7) 0.211985 (1,2,9) -0.213469 (1,3,8) 0.536148
(1,2,9): (1,1,9) -0.167264 (1,2,8) 0.213469 (1,2,10) -0.124740 (1,3,9) 0.315257
(1,2,10): (1,1,10) -0.117171 (1,2,9) 0.124740 (1,3,10) 0.203653
(1,3,1): (1,2,1) -8.952931E-02 (1,3,2) 0.152571 (1,4,1) 6.985755E-02
(1,3,2): (1,2,2) -0.151122 (1,3,1) -0.152571 (1,3,3) 0.321347 (1,4,2) 0.142670
(1,3,3): (1,2,3) -0.292621 (1,3,2) -0.321347 (1,3,4) 0.477107 (1,4,3) 0.346695
(1,3,4): (1,2,4) -0.526993 (1,3,3) -0.477107 (1,3,5) 0.491957 (1,4,4) 0.782114
(1,3,5): (1,2,5) -0.793023 (1,3,4) -0.491957 (1,3,6) 0.184642 (1,4,5) 1.42253
(1,3,6): (1,2,6) -0.887895 (1,3,5) -0.184642 (1,3,7) -0.173075 (1,4,6) 1.59102
(1,3,7): (1,2,7) -0.796202 (1,3,6) 0.173075 (1,3,8) -0.471230 (1,4,7) 1.42463
(1,3,8): (1,2,8) -0.536148 (1,3,7) 0.471230 (1,3,9) -0.434142 (1,4,8) 0.788217
(1,3,9): (1,2,9) -0.315257 (1,3,8) 0.434142 (1,3,10) -0.236258 (1,4,9) 0.362963
(1,3,10): (1,2,10) -0.203653 (1,3,9) 0.236258 (1,4,10) 0.186362
(1,4,1): (1,3,1) -6.985755E-02 (1,4,2) 0.225443 (1,5,1) -5.029962E-02
(1,4,2): (1,3,2) -0.142670 (1,4,1) -0.225443 (1,4,3) 0.525728 (1,5,2) -3.370245E-02
(1,4,3): (1,3,3) -0.346695 (1,4,2) -0.525728 (1,4,4) 0.913070 (1,5,3) 0.121902
(1,4,4): (1,3,4) -0.782114 (1,4,3) -0.913070 (1,4,5) 1.13064 (1,5,4) 0.783722
(1,4,5): (1,3,5) -1.42253 (1,4,4) -1.13064 (1,4,6) 0.351234 (1,5,5) 2.47929
(1,4,6): (1,3,6) -1.59102 (1,4,5) -0.351234 (1,4,7) -0.337571 (1,5,6) 2.58496
(1,4,7): (1,3,7) -1.42463 (1,4,6) 0.337571 (1,4,8) -1.10576 (1,5,7) 2.47713
(1,4,8): (1,3,8) -0.788217 (1,4,7) 1.10576 (1,4,9) -0.859686 (1,5,8) 0.777181
(1,4,9): (1,3,9) -0.362963 (1,4,8) 0.859686 (1,4,10) -0.412944 (1,5,9) 0.106539
(1,4,10): (1,3,10) -0.186362 (1,4,9) 0.412944 (1,5,10) -5.981146E-02
(1,5,1): (1,4,1) 5.029962E-02 (1,5,2) 0.242071 (1,6,1) -0.270595
(1,5,2): (1,4,2) 3.370245E-02 (1,5,1) -0.242071 (1,5,3) 0.682174 (1,6,2) -0.454807
(1,5,3): (1,4,3) -0.121902 (1,5,2) -0.682174 (1,5,4) 1.57986 (1,6,3) -0.745592
(1,5,4): (1,4,4) -0.783722 (1,5,3) -1.57986 (1,5,5) 2.83151 (1,6,4) -0.390513
(1,5,5): (1,4,5) -2.47929 (1,5,4) -2.83151 (1,5,6) 0.455096 (1,6,5) 5.00829
(1,5,6): (1,4,6) -2.58496 (1,5,5) -0.455096 (1,5,7) -0.443529 (1,6,6) 3.67487
(1,5,7): (1,4,7) -2.47713 (1,5,6) 0.443529 (1,5,8) -2.81075 (1,6,7) 4.99997
(1,5,8): (1,4,8) -0.777181 (1,5,7) 2.81075 (1,5,9) -1.53513 (1,6,8) -0.415751
(1,5,9): (1,4,9) -0.106539 (1,5,8) 1.53513 (1,5,10) -0.580028 (1,6,9) -0.813623
(1,5,10): (1,4,10) 5.981146E-02 (1,5,9) 0.580028 (1,6,10) -0.620427
(1,6,1): (1,5,1) 0.270595 (1,6,2) 5.824474E-02 (1,7,1) -0.436695
(1,6,2): (1,5,2) 0.454807 (1,6,1) -5.824474E-02 (1,6,3) 0.391567 (1,7,2) -0.930837
(1,6,3): (1,5,3) 0.745592 (1,6,2) -0.391567 (1,6,4) 1.93907 (1,7,3) -2.46696
(1,6,4): (1,5,4) 0.390513 (1,6,3) -1.93907 (1,6,5) 8.38008 (1,7,4) -6.96914
(1,6,5): (1,5,5) -5.00829 (1,6,4) -8.38008 (1,6,6) -0.835057 (1,7,5) -21.5202
(1,6,6): (1,5,6) -3.67487 (1,6,5) 0.835057 (1,6,7) 0.838634 (1,7,6) -33.6789
(1,6,7): (1,5,7) -4.99997 (1,6,6) -0.838634 (1,6,8) -8.37678 (1,7,7) -21.5312
(1,6,8): (1,5,8) 0.415751 (1,6,7) 8.37678 (1,6,9) -1.93734 (1,7,8) -7.00382
(1,6,9): (1,5,9) 0.813623 (1,6,8) 1.93734 (1,6,10) -0.387263 (1,7,9) -2.56792
(1,6,10): (1,5,10) 0.620427 (1,6,9) 0.387263 (1,7,10) -1.21393
(1,7,1): (1,6,1) 0.436695 (1,7,2) -0.433490 (1,8,1) -0.236306
(1,7,2): (1,6,2) 0.930837 (1,7,1) 0.433490 (1,7,3) -1.12595 (1,8,2) -0.539718
(1,7,3): (1,6,3) 2.46696 (1,7,2) 1.12595 (1,7,4) -2.40970 (1,8,3) -1.56837
(1,7,4): (1,6,4) 6.96914 (1,7,3) 2.40970 (1,7,5) -4.91105 (1,8,4) -4.86525
(1,7,5): (1,6,5) 21.5202 (1,7,4) 4.91105 (1,7,6) -10.8751 (1,8,5) -15.8386
(1,7,6): (1,6,6) 33.6789 (1,7,5) 10.8751 (1,7,7) 10.8687 (1,8,6) -55.5803
(1,7,7): (1,6,7) 21.5312 (1,7,6) -10.8687 (1,7,8) 4.88978 (1,8,7) -15.8435
(1,7,8): (1,6,8) 7.00382 (1,7,7) -4.88978 (1,7,9) 2.34377 (1,8,8) -4.88261
(1,7,9): (1,6,9) 2.56792 (1,7,8) -2.34377 (1,7,10) 0.946752 (1,8,9) -1.62091
(1,7,10): (1,6,10) 1.21393 (1,7,9) -0.946752 (1,8,10) -0.694272
(1,8,1): (1,7,1) 0.236306 (1,8,2) -0.737510 (1,9,1) 0.215028
(1,8,2): (1,7,2) 0.539718 (1,8,1) 0.737510 (1,8,3) -2.16084 (1,9,2) 0.511704
(1,8,3): (1,7,3) 1.56837 (1,8,2) 2.16084 (1,8,4) -5.73654 (1,9,3) 1.51691
(1,8,4): (1,7,4) 4.86525 (1,8,3) 5.73654 (1,8,5) -15.8904 (1,9,4) 4.73736
(1,8,5): (1,7,5) 15.8386 (1,8,4) 15.8904 (1,8,6) -47.6874 (1,9,5) 15.4989
(1,8,6): (1,7,6) 55.5803 (1,8,5) 47.6874 (1,8,7) 47.6696 (1,9,6) 55.0113
(1,8,7): (1,7,7) 15.8435 (1,8,6) -47.6696 (1,8,8) 15.8516 (1,9,7) 15.5024
(1,8,8): (1,7,8) 4.88261 (1,8,7) -15.8516 (1,8,9) 5.63098 (1,9,8) 4.75151
(1,8,9): (1,7,9) 1.62091 (1,8,8) -5.63098 (1,8,10) 1.87582 (1,9,9) 1.56369
(1,8,10): (1,7,10) 0.694272 (1,8,9) -1.87582 (1,9,10) 0.656766
(1,9,1): (1,8,1) -0.215028 (1,9,2) -0.440156 (1,10,1) 0.420708
(1,9,2): (1,8,2) -0.511704 (1,9,1) 0.440156 (1,9,3) -1.14899 (1,10,2) 0.908595
(1,9,3): (1,8,3) -1.51691 (1,9,2) 1.14899 (1,9,4) -2.48244 (1,10,3) 2.41808
(1,9,4): (1,8,4) -4.73736 (1,9,3) 2.48244 (1,9,5) -5.08430 (1,10,4) 6.79353
(1,9,5): (1,8,5) -15.4989 (1,9,4) 5.08430 (1,9,6) -10.8971 (1,10,5) 20.6936
(1,9,6): (1,8,6) -55.0113 (1,9,5) 10.8971 (1,9,7) 10.8894 (1,10,6) 32.6562
(1,9,7): (1,8,7) -15.5024 (1,9,6) -10.8894 (1,9,8) 5.06113 (1,10,7) 20.7034
(1,9,8): (1,8,8) -4.75151 (1,9,7) -5.06113 (1,9,9) 2.41378 (1,10,8) 6.82579
(1,9,9): (1,8,9) -1.56369 (1,9,8) -2.41378 (1,9,10) 0.965977 (1,10,9) 2.51466
(1,9,10): (1,8,10) -0.656766 (1,9,9) -0.965977 (1,10,10) 1.18430
(1,10,1): (1,9,1) -0.420708 (1,10,2) 4.547918E-02 (1,11,1) 0.264380
(1,10,2): (1,9,2) -0.908595 (1,10,1) -4.547918E-02 (1,10,3) 0.342902 (1,11,2) 0.450398
(1,10,3): (1,9,3) -2.41808 (1,10,2) -0.342902 (1,10,4) 1.74739 (1,11,3) 0.758710
(1,10,4): (1,9,4) -6.79353 (1,10,3) -1.74739 (1,10,5) 7.62399 (1,11,4) 0.508624
(1,10,5): (1,9,5) -20.6936 (1,10,4) -7.62399 (1,10,6) -0.962250 (1,11,5) -4.34022
(1,10,6): (1,9,6) -32.6562 (1,10,5) 0.962250 (1,10,7) 0.963536 (1,11,6) -2.93913
(1,10,7): (1,9,7) -20.7034 (1,10,6) -0.963536 (1,10,8) -7.62391 (1,11,7) -4.33240
(1,10,8): (1,9,8) -6.82579 (1,10,7) 7.62391 (1,10,9) -1.75035 (1,11,8) 0.532795
(1,10,9): (1,9,9) -2.51466 (1,10,8) 1.75035 (1,10,10) -0.345387 (1,11,9) 0.824831
(1,10,10): (1,9,10) -1.18430 (1,10,9) 0.345387 (1,11,10) 0.613324
(1,11,1): (1,10,1) -0.264380 (1,11,2) 0.231094 (1,12,1) 5.231168E-02
(1,11,2): (1,10,2) -0.450398 (1,11,1) -0.231094 (1,11,3) 0.650893 (1,12,2) 3.813997E-02
(1,11,3): (1,10,3) -0.758710 (1,11,2) -0.650893 (1,11,4) 1.49485 (1,12,3) -0.104360
(1,11,4): (1,10,4) -0.508624 (1,11,3) -1.49485 (1,11,5) 2.64291 (1,12,4) -0.714424
(1,11,5): (1,10,5) 4.34022 (1,11,4) -2.64291 (1,11,6) 0.401201 (1,12,5) -2.27099
(1,11,6): (1,10,6) 2.93913 (1,11,5) -0.401201 (1,11,7) -0.392354 (1,12,6) -2.34000
(1,11,7): (1,10,7) 4.33240 (1,11,6) 0.392354 (1,11,8) -2.62592 (1,12,7) -2.26870
(1,11,8): (1,10,8) -0.532795 (1,11,7) 2.62592 (1,11,9) -1.45565 (1,12,8) -0.707631
(1,11,9): (1,10,9) -0.824831 (1,11,8) 1.45565 (1,11,10) -0.556349 (1,12,9) -8.858711E-02
(1,11,10): (1,10,10) -0.613324 (1,11,9) 0.556349 (1,12,10) 6.507584E-02
(1,12,1): (1,11,1) -5.231168E-02 (1,12,2) 0.216897 (1,13,1) -6.291091E-02
(1,12,2): (1,11,2) -3.813997E-02 (1,12,1) -0.216897 (1,12,3) 0.507645 (1,13,2) -0.134054
(1,12,3): (1,11,3) 0.104360 (1,12,2) -0.507645 (1,12,4) 0.880278 (1,13,3) -0.332371
(1,12,4): (1,11,4) 0.714424 (1,12,3) -0.880278 (1,12,5) 1.08116 (1,13,4) -0.751170
(1,12,5): (1,11,5) 2.27099 (1,12,4) -1.08116 (1,12,6) 0.333242 (1,13,5) -1.35877
(1,12,6): (1,11,6) 2.34000 (1,12,5) -0.333242 (1,12,7) -0.322156 (1,13,6) -1.51595
(1,12,7): (1,11,7) 2.26870 (1,12,6) 0.322156 (1,12,8) -1.05986 (1,13,7) -1.36040
(1,12,8): (1,11,8) 0.707631 (1,12,7) 1.05986 (1,12,9) -0.832218 (1,13,8) -0.756206
(1,12,9): (1,11,9) 8.858711E-02 (1,12,8) 0.832218 (1,12,10) -0.402024 (1,13,9) -0.346760
(1,12,10): (1,11,10) -6.507584E-02 (1,12,9) 0.402024 (1,13,10) -0.174819
(1,13,1): (1,12,1) 6.291091E-02 (1,13,2) 0.145696 (1,14,1) -8.174334E-02
(1,13,2): (1,12,2) 0.134054 (1,13,1) -0.145696 (1,13,3) 0.308989 (1,14,2) -0.142019
(1,13,3): (1,12,3) 0.332371 (1,13,2) -0.308989 (1,13,4) 0.460961 (1,14,3) -0.280708
(1,13,4): (1,12,4) 0.751170 (1,13,3) -0.460961 (1,13,5) 0.475131 (1,14,4) -0.509871
(1,13,5): (1,12,5) 1.35877 (1,13,4) -0.475131 (1,13,6) 0.177761 (1,14,5) -0.768256
(1,13,6): (1,12,6) 1.51595 (1,13,5) -0.177761 (1,13,7) -0.168296 (1,14,6) -0.860110
(1,13,7): (1,12,7) 1.36040 (1,13,6) 0.168296 (1,13,8) -0.457360 (1,14,7) -0.770922
(1,13,8): (1,12,8) 0.756206 (1,13,7) 0.457360 (1,13,9) -0.422475 (1,14,8) -0.517833
(1,13,9): (1,12,9) 0.346760 (1,13,8) 0.422475 (1,13,10) -0.229991 (1,14,9) -0.301187
(1,13,10): (1,12,10) 0.174819 (1,13,9) 0.229991 (1,14,10) -0.191179
(1,14,1): (1,13,1) 8.174334E-02 (1,14,2) 8.541785E-02 (1,15,1) -4.945532E-02
(1,14,2): (1,13,2) 0.142019 (1,14,1) -8.541785E-02 (1,14,3) 0.170262 (1,15,2) -8.032137E-02
(1,14,3): (1,13,3) 0.280708 (1,14,2) -0.170262 (1,14,4) 0.231907 (1,15,3) -0.145976
(1,14,4): (1,13,4) 0.509871 (1,14,3) -0.231907 (1,14,5) 0.217473 (1,15,4) -0.243115
(1,14,5): (1,13,5) 0.768256 (1,14,4) -0.217473 (1,14,6) 8.650327E-02 (1,15,5) -0.340911
(1,14,6): (1,13,6) 0.860110 (1,14,5) -8.650327E-02 (1,14,7) -7.969435E-02 (1,15,6) -0.378986
(1,14,7): (1,13,7) 0.770922 (1,14,6) 7.969435E-02 (1,14,8) -0.205033 (1,15,7) -0.342651
(1,14,8): (1,13,8) 0.517833 (1,14,7) 0.205033 (1,14,9) -0.206029 (1,15,8) -0.248228
(1,14,9): (1,13,9) 0.301187 (1,14,8) 0.206029 (1,14,10) -0.120060 (1,15,9) -0.158684
(1,14,10): (1,13,10) 0.191179 (1,14,9) 0.120060 (1,15,10) -0.109236
(1,15,1): (1,14,1) 4.945532E-02 (1,15,2) 5.455023E-02
(1,15,2): (1,14,2) 8.032137E-02 (1,15,1) -5.455023E-02 (1,15,3) 0.104592
(1,15,3): (1,14,3) 0.145976 (1,15,2) -0.104592 (1,15,4) 0.134779
(1,15,4): (1,14,4) 0.243115 (1,15,3) -0.134779 (1,15,5) 0.119794
(1,15,5): (1,14,5) 0.340911 (1,15,4) -0.119794 (1,15,6) 4.853668E-02
(1,15,6): (1,14,6) 0.378986 (1,15,5) -4.853668E-02 (1,15,7) -4.346520E-02
(1,15,7): (1,14,7) 0.342651 (1,15,6) 4.346520E-02 (1,15,8) -0.110736
(1,15,8): (1,14,8) 0.248228 (1,15,7) 0.110736 (1,15,9) -0.116523
(1,15,9): (1,14,9) 0.158684 (1,15,8) 0.116523 (1,15,10) -7.063027E-02
(1,15,10): (1,14,10) 0.109236 (1,15,9) 7.063027E-02

 WEL PACKAGE (WEL-1) FLOW RATES   PERIOD      2   STEP       77
 ----------------------------------------------------------------------------------------
   NUMBER   CELLID                    RATE       NAME                                    
 ----------------------------------------------------------------------------------------
     1      (1,8,6)              -206.01743      WEL                                     
 ----------------------------------------------------------------------------------------




 DRN PACKAGE (DRN-0) FLOW RATES   PERIOD      2   STEP       77
 ----------------------------------------------------------------------------------------
   NUMBER   CELLID                    RATE       NAME                                    
 ----------------------------------------------------------------------------------------
     1      (1,1,1)               0.0000000      SURF                                    
     2      (1,1,2)               0.0000000      SURF                                    
     3      (1,1,3)               0.0000000      SURF                                    
     4      (1,1,4)               0.0000000      SURF                                    
     5      (1,1,5)               0.0000000      SURF                                    
     6      (1,1,6)               0.0000000      SURF                                    
     7      (1,1,7)               0.0000000      SURF                                    
     8      (1,1,8)               0.0000000      SURF                                    
     9      (1,1,9)               0.0000000      SURF                                    
     10     (1,1,10)              0.0000000      SURF                                    
     11     (1,2,1)               0.0000000      SURF                                    
     12     (1,2,2)               0.0000000      SURF                                    
     13     (1,2,3)               0.0000000      SURF                                    
     14     (1,2,4)               0.0000000      SURF                                    
     15     (1,2,5)               0.0000000      SURF                                    
     16     (1,2,6)               0.0000000      SURF                                    
     17     (1,2,7)               0.0000000      SURF                                    
     18     (1,2,8)               0.0000000      SURF                                    
     19     (1,2,9)               0.0000000      SURF                                    
     20     (1,2,10)              0.0000000      SURF                                    
     21     (1,3,1)               0.0000000      SURF                                    
     22     (1,3,2)               0.0000000      SURF                                    
     23     (1,3,3)               0.0000000      SURF                                    
     24     (1,3,4)               0.0000000      SURF                                    
     25     (1,3,5)               0.0000000      SURF                                    
     26     (1,3,6)               0.0000000      SURF                                    
     27     (1,3,7)               0.0000000      SURF                                    
     28     (1,3,8)               0.0000000      SURF                                    
     29     (1,3,9)               0.0000000      SURF                                    
     30     (1,3,10)              0.0000000      SURF                                    
     31     (1,4,1)               0.0000000      SURF                                    
     32     (1,4,2)               0.0000000      SURF                                    
     33     (1,4,3)               0.0000000      SURF                                    
     34     (1,4,4)               0.0000000      SURF                                    
     35     (1,4,5)               0.0000000      SURF                                    
     36     (1,4,6)               0.0000000      SURF                                    
     37     (1,4,7)               0.0000000      SURF                                    
     38     (1,4,8)               0.0000000      SURF                                    
     39     (1,4,9)               0.0000000      SURF                                    
     40     (1,4,10)              0.0000000      SURF                                    
     41     (1,5,1)               0.0000000      SURF                                    
     42     (1,5,2)               0.0000000      SURF                                    
     43     (1,5,3)               0.0000000      SURF                                    
     44     (1,5,4)               0.0000000      SURF                                    
     45     (1,5,5)               0.0000000      SURF                                    
     46     (1,5,6)               0.0000000      SURF                                    
     47     (1,5,7)               0.0000000      SURF                                    
     48     (1,5,8)               0.0000000      SURF                                    
     49     (1,5,9)               0.0000000      SURF                                    
     50     (1,5,10)              0.0000000      SURF                                    
     51     (1,6,1)               0.0000000      SURF                                    
     52     (1,6,2)               0.0000000      SURF                                    
     53     (1,6,3)               0.0000000      SURF                                    
     54     (1,6,4)               0.0000000      SURF                                    
     55     (1,6,5)               0.0000000      SURF                                    
     56     (1,6,6)               0.0000000      SURF                                    
     57     (1,6,7)              -3.16926162E-07 SURF                                    
     58     (1,6,8)               0.0000000      SURF                                    
     59     (1,6,9)               0.0000000      SURF                                    
     60     (1,6,10)              0.0000000      SURF                                    
     61     (1,7,1)               0.0000000      SURF                                    
     62     (1,7,2)               0.0000000      SURF                                    
     63     (1,7,3)               0.0000000      SURF                                    
     64     (1,7,4)               0.0000000      SURF                                    
     65     (1,7,5)               0.0000000      SURF                                    
     66     (1,7,6)               0.0000000      SURF                                    
     67     (1,7,7)               0.0000000      SURF                                    
     68     (1,7,8)               0.0000000      SURF                                    
     69     (1,7,9)               0.0000000      SURF                                    
     70     (1,7,10)              0.0000000      SURF                                    
     71     (1,8,1)               0.0000000      SURF                                    
     72     (1,8,2)               0.0000000      SURF                                    
     73     (1,8,3)               0.0000000      SURF                                    
     74     (1,8,4)               0.0000000      SURF                                    
     75     (1,8,5)               0.0000000      SURF                                    
     76     (1,8,6)               0.0000000      SURF                                    
     77     (1,8,7)               0.0000000      SURF                                    
     78     (1,8,8)               0.0000000      SURF                                    
     79     (1,8,9)               0.0000000      SURF                                    
     80     (1,8,10)              0.0000000      SURF                                    
     81     (1,9,1)               0.0000000      SURF                                    
     82     (1,9,2)               0.0000000      SURF                                    
     83     (1,9,3)               0.0000000      SURF                                    
     84     (1,9,4)               0.0000000      SURF                                    
     85     (1,9,5)               0.0000000      SURF                                    
     86     (1,9,6)               0.0000000      SURF                                    
     87     (1,9,7)               0.0000000      SURF                                    
     88     (1,9,8)               0.0000000      SURF                                    
     89     (1,9,9)               0.0000000      SURF                                    
     90     (1,9,10)              0.0000000      SURF                                    
     91     (1,10,1)              0.0000000      SURF                                    
     92     (1,10,2)              0.0000000      SURF                                    
     93     (1,10,3)              0.0000000      SURF                                    
     94     (1,10,4)              0.0000000      SURF                                    
     95     (1,10,5)              0.0000000      SURF                                    
     96     (1,10,6)              0.0000000      SURF                                    
     97     (1,10,7)              0.0000000      SURF                                    
     98     (1,10,8)              0.0000000      SURF                                    
     99     (1,10,9)              0.0000000      SURF                                    
    100     (1,10,10)             0.0000000      SURF                                    
    101     (1,11,1)              0.0000000      SURF                                    
    102     (1,11,2)              0.0000000      SURF                                    
    103     (1,11,3)              0.0000000      SURF                                    
    104     (1,11,4)              0.0000000      SURF                                    
    105     (1,11,5)              0.0000000      SURF                                    
    106     (1,11,6)              0.0000000      SURF                                    
    107     (1,11,7)              0.0000000      SURF                                    
    108     (1,11,8)              0.0000000      SURF                                    
    109     (1,11,9)              0.0000000      SURF                                    
    110     (1,11,10)             0.0000000      SURF                                    
    111     (1,12,1)              0.0000000      SURF                                    
    112     (1,12,2)              0.0000000      SURF                                    
    113     (1,12,3)              0.0000000      SURF                                    
    114     (1,12,4)              0.0000000      SURF                                    
    115     (1,12,5)              0.0000000      SURF                                    
    116     (1,12,6)              0.0000000      SURF                                    
    117     (1,12,7)              0.0000000      SURF                                    
    118     (1,12,8)              0.0000000      SURF                                    
    119     (1,12,9)              0.0000000      SURF                                    
    120     (1,12,10)             0.0000000      SURF                                    
    121     (1,13,1)              0.0000000      SURF                                    
    122     (1,13,2)              0.0000000      SURF                                    
    123     (1,13,3)              0.0000000      SURF                                    
    124     (1,13,4)              0.0000000      SURF                                    
    125     (1,13,5)              0.0000000      SURF                                    
    126     (1,13,6)              0.0000000      SURF                                    
    127     (1,13,7)              0.0000000      SURF                                    
    128     (1,13,8)              0.0000000      SURF                                    
    129     (1,13,9)              0.0000000      SURF                                    
    130     (1,13,10)             0.0000000      SURF                                    
    131     (1,14,1)              0.0000000      SURF                                    
    132     (1,14,2)              0.0000000      SURF                                    
    133     (1,14,3)              0.0000000      SURF                                    
    134     (1,14,4)              0.0000000      SURF                                    
    135     (1,14,5)              0.0000000      SURF                                    
    136     (1,14,6)              0.0000000      SURF                                    
    137     (1,14,7)              0.0000000      SURF                                    
    138     (1,14,8)              0.0000000      SURF                                    
    139     (1,14,9)              0.0000000      SURF                                    
    140     (1,14,10)             0.0000000      SURF                                    
    141     (1,15,1)              0.0000000      SURF                                    
    142     (1,15,2)              0.0000000      SURF                                    
    143     (1,15,3)              0.0000000      SURF                                    
    144     (1,15,4)              0.0000000      SURF                                    
    145     (1,15,5)              0.0000000      SURF                                    
    146     (1,15,6)              0.0000000      SURF                                    
    147     (1,15,7)              0.0000000      SURF                                    
    148     (1,15,8)              0.0000000      SURF                                    
    149     (1,15,9)              0.0000000      SURF                                    
    150     (1,15,10)             0.0000000      SURF                                    
 ----------------------------------------------------------------------------------------




 API PACKAGE (MAR) FLOW RATES   PERIOD      2   STEP       77
 -----------------------------------------------
   NUMBER   CELLID                    RATE      
 -----------------------------------------------
     1      (1,6,5)               35.746539     
     2      (1,6,6)               35.746539     
     3      (1,6,7)               35.746539     
     4      (1,10,5)              32.925937     
     5      (1,10,6)              32.925937     
     6      (1,10,7)              32.925937     
 -----------------------------------------------



1
  HEAD IN LAYER   1 AT END OF TIME STEP  77 IN STRESS PERIOD    2
  ---------------------------------------------------------------------------

            1           2           3           4           5           6           7           8           9          10
 ........................................................................................................................
   1   1.4312E-02  2.0229E-02  3.1462E-02  4.5779E-02  5.8407E-02  6.3534E-02  5.9037E-02  4.7494E-02  3.5282E-02  2.7841E-02
   2   1.9740E-02  2.8812E-02  4.6709E-02  7.0823E-02  9.3283E-02  0.1022      9.4114E-02  7.3114E-02  5.1922E-02  3.9512E-02
   3   2.8668E-02  4.3858E-02  7.5751E-02  0.1229      0.1713      0.1894      0.1724      0.1261      8.3187E-02  5.9756E-02
   4   3.5629E-02  5.8043E-02  0.1100      0.1996      0.3092      0.3432      0.3106      0.2033      0.1191      7.8248E-02
   5   3.0617E-02  5.4692E-02  0.1221      0.2758      0.5444      0.5873      0.5455      0.2789      0.1296      7.2313E-02
   6   3.6397E-03  9.4586E-03  4.8427E-02  0.2378      0.9997      0.9238       1.000      0.2385      4.9252E-02  1.0716E-02
   7  -4.0014E-02 -8.3537E-02 -0.1971     -0.4429     -0.9568      -2.159     -0.9574     -0.4456     -0.2063     -0.1105    
   8  -6.3739E-02 -0.1380     -0.3571     -0.9520      -2.708      -9.248      -2.709     -0.9566     -0.3718     -0.1808    
   9  -4.2146E-02 -8.6347E-02 -0.2022     -0.4556     -0.9883      -2.198     -0.9891     -0.4586     -0.2120     -0.1143    
  10  -7.4481E-05  4.4714E-03  3.8630E-02  0.2098      0.9087      0.8205      0.9088      0.2099      3.8473E-02  4.0671E-03
  11   2.6294E-02  4.9290E-02  0.1136      0.2594      0.5108      0.5488      0.5116      0.2618      0.1200      6.5003E-02
  12   3.1509E-02  5.3084E-02  0.1033      0.1897      0.2947      0.3270      0.2958      0.1929      0.1112      7.1465E-02
  13   2.5238E-02  3.9749E-02  7.0432E-02  0.1160      0.1628      0.1802      0.1637      0.1187      7.6930E-02  5.4107E-02
  14   1.7084E-02  2.5604E-02  4.2558E-02  6.5597E-02  8.7157E-02  9.5725E-02  8.7831E-02  6.7506E-02  4.7042E-02  3.5092E-02
  15   1.2147E-02  1.7592E-02  2.8022E-02  4.1444E-02  5.3360E-02  5.8186E-02  5.3864E-02  4.2850E-02  3.1248E-02  2.4207E-02

 HEAD WILL BE SAVED ON UNIT 1100 AT END OF TIME STEP   77, STRESS PERIOD    2


  VOLUME BUDGET FOR ENTIRE MODEL AT END OF TIME STEP   77, STRESS PERIOD   2
  ---------------------------------------------------------------------------------------------------

     CUMULATIVE VOLUME      L**3       RATES FOR THIS TIME STEP      L**3/T          PACKAGE NAME    
     ------------------                 ------------------------                     ----------------

           IN:                                      IN:
           ---                                      ---
              STO-SS =          24.4918                STO-SS =       8.8497E-03     STORAGE                          
              STO-SY =       60536.8073                STO-SY =          18.4062     STORAGE                          
                 WEL =           0.0000                   WEL =           0.0000     WEL-1                            
                 DRN =           0.0000                   DRN =           0.0000     DRN-0                            
                 API =      157478.7405                   API =         206.0174     MAR                              
                 CHD =       2.0279E-08                   CHD =           0.0000     CHD_0                            

            TOTAL IN =      218040.0396              TOTAL IN =         224.4325

          OUT:                                     OUT:
          ----                                     ----
              STO-SS =          20.9777                STO-SS =       9.3116E-03     STORAGE                          
              STO-SY =       40971.5149                STO-SY =          18.4058     STORAGE                          
                 WEL =      177047.5468                   WEL =         206.0174     WEL-1                            
                 DRN =       2.5710E-04                   DRN =       3.1693E-07     DRN-0                            
                 API =           0.0000                   API =           0.0000     MAR                              
                 CHD =       2.0705E-08                   CHD =           0.0000     CHD_0                            

           TOTAL OUT =      218040.0396             TOTAL OUT =         224.4325

            IN - OUT =      -1.0379E-06              IN - OUT =       7.9768E-10

 PERCENT DISCREPANCY =          -0.00     PERCENT DISCREPANCY =           0.00




         TIME SUMMARY AT END OF TIME STEP   77 IN STRESS PERIOD    2
                    SECONDS     MINUTES      HOURS       DAYS        YEARS
                    -----------------------------------------------------------
   TIME STEP LENGTH 8.64000E+05  14400.      240.00      10.000     2.73785E-02
 STRESS PERIOD TIME 6.65280E+07 1.10880E+06  18480.      770.00      2.1081    
         TOTAL TIME 6.66144E+07 1.11024E+06  18504.      771.00      2.1109    


end timestep


start timestep kper="2" kstp="78" mode="normal"

 UBDSV1 SAVING           STO-SS ON UNIT   1099 AT TIME STEP     78, STRESS PERIOD      2
 UBDSV1 SAVING           STO-SY ON UNIT   1099 AT TIME STEP     78, STRESS PERIOD      2
 UBDSV1 SAVING     FLOW-JA-FACE ON UNIT   1099 AT TIME STEP     78, STRESS PERIOD      2
 UBDSV06 SAVING       DATA-SPDIS IN MODEL GWF              PACKAGE NPF             CONNECTED TO MODEL GWF              PACKAGE NPF              ON UNIT   1099 AT TIME STEP     78, STRESS PERIOD      2
 UBDSV06 SAVING              WEL IN MODEL GWF              PACKAGE GWF             CONNECTED TO MODEL GWF              PACKAGE WEL-1            ON UNIT   1099 AT TIME STEP     78, STRESS PERIOD      2
 UBDSV06 SAVING              DRN IN MODEL GWF              PACKAGE GWF             CONNECTED TO MODEL GWF              PACKAGE DRN-0            ON UNIT   1099 AT TIME STEP     78, STRESS PERIOD      2
 UBDSV06 SAVING              API IN MODEL GWF              PACKAGE GWF             CONNECTED TO MODEL GWF              PACKAGE MAR              ON UNIT   1099 AT TIME STEP     78, STRESS PERIOD      2
 UBDSV06 SAVING              CHD IN MODEL GWF              PACKAGE GWF             CONNECTED TO MODEL GWF              PACKAGE CHD_0            ON UNIT   1099 AT TIME STEP     78, STRESS PERIOD      2

    CALCULATED INTERCELL FLOW FOR PERIOD 2 STEP 78
(1,1,1): (1,1,2) 6.057095E-02 (1,2,1) 5.497640E-02
(1,1,2): (1,1,1) -6.057095E-02 (1,1,3) 0.114924 (1,2,2) 8.675712E-02
(1,1,3): (1,1,2) -0.114924 (1,1,4) 0.146381 (1,2,3) 0.154041
(1,1,4): (1,1,3) -0.146381 (1,1,5) 0.129079 (1,2,4) 0.253327
(1,1,5): (1,1,4) -0.129079 (1,1,6) 5.247429E-02 (1,2,5) 0.353385
(1,1,6): (1,1,5) -5.247429E-02 (1,1,7) -4.578676E-02 (1,2,6) 0.392432
(1,1,7): (1,1,6) 4.578676E-02 (1,1,8) -0.117698 (1,2,7) 0.355483
(1,1,8): (1,1,7) 0.117698 (1,1,9) -0.124500 (1,2,8) 0.259279
(1,1,9): (1,1,8) 0.124500 (1,1,10) -7.583085E-02 (1,2,9) 0.168281
(1,1,10): (1,1,9) 7.583085E-02 (1,2,10) 0.118084
(1,2,1): (1,1,1) -5.497640E-02 (1,2,2) 9.235342E-02 (1,3,1) 8.980317E-02
(1,2,2): (1,1,2) -8.675712E-02 (1,2,1) -9.235342E-02 (1,2,3) 0.182227 (1,3,2) 0.151375
(1,2,3): (1,1,3) -0.154041 (1,2,2) -0.182227 (1,2,4) 0.245659 (1,3,3) 0.292921
(1,2,4): (1,1,4) -0.253327 (1,2,3) -0.245659 (1,2,5) 0.229016 (1,3,4) 0.527516
(1,2,5): (1,1,5) -0.353385 (1,2,4) -0.229016 (1,2,6) 9.140699E-02 (1,3,5) 0.793896
(1,2,6): (1,1,6) -0.392432 (1,2,5) -9.140699E-02 (1,2,7) -8.262437E-02 (1,3,6) 0.888958
(1,2,7): (1,1,7) -0.355483 (1,2,6) 8.262437E-02 (1,2,8) -0.213769 (1,3,7) 0.797108
(1,2,8): (1,1,8) -0.259279 (1,2,7) 0.213769 (1,2,9) -0.215460 (1,3,8) 0.536729
(1,2,9): (1,1,9) -0.168281 (1,2,8) 0.215460 (1,2,10) -0.126007 (1,3,9) 0.315621
(1,2,10): (1,1,10) -0.118084 (1,2,9) 0.126007 (1,3,10) 0.203948
(1,3,1): (1,2,1) -8.980317E-02 (1,3,2) 0.153927 (1,4,1) 6.840269E-02
(1,3,2): (1,2,2) -0.151375 (1,3,1) -0.153927 (1,3,3) 0.323817 (1,4,2) 0.140782
(1,3,3): (1,2,3) -0.292921 (1,3,2) -0.323817 (1,3,4) 0.480146 (1,4,3) 0.344279
(1,3,4): (1,2,4) -0.527516 (1,3,3) -0.480146 (1,3,5) 0.494633 (1,4,4) 0.779557
(1,3,5): (1,2,5) -0.793896 (1,3,4) -0.494633 (1,3,6) 0.185834 (1,4,5) 1.42035
(1,3,6): (1,2,6) -0.888958 (1,3,5) -0.185834 (1,3,7) -0.173851 (1,4,6) 1.58910
(1,3,7): (1,2,7) -0.797108 (1,3,6) 0.173851 (1,3,8) -0.473341 (1,4,7) 1.42238
(1,3,8): (1,2,8) -0.536729 (1,3,7) 0.473341 (1,3,9) -0.436353 (1,4,8) 0.785483
(1,3,9): (1,2,9) -0.315621 (1,3,8) 0.436353 (1,3,10) -0.237594 (1,4,9) 0.360125
(1,3,10): (1,2,10) -0.203948 (1,3,9) 0.237594 (1,4,10) 0.183657
(1,4,1): (1,3,1) -6.840269E-02 (1,4,2) 0.226367 (1,5,1) -5.451658E-02
(1,4,2): (1,3,2) -0.140782 (1,4,1) -0.226367 (1,4,3) 0.527678 (1,5,2) -3.896222E-02
(1,4,3): (1,3,3) -0.344279 (1,4,2) -0.527678 (1,4,4) 0.915992 (1,5,3) 0.115290
(1,4,4): (1,3,4) -0.779557 (1,4,3) -0.915992 (1,4,5) 1.13372 (1,5,4) 0.776594
(1,4,5): (1,3,5) -1.42035 (1,4,4) -1.13372 (1,4,6) 0.352690 (1,5,5) 2.47299
(1,4,6): (1,3,6) -1.58910 (1,4,5) -0.352690 (1,4,7) -0.338668 (1,5,6) 2.57925
(1,4,7): (1,3,7) -1.42238 (1,4,6) 0.338668 (1,4,8) -1.10839 (1,5,7) 2.47063
(1,4,8): (1,3,8) -0.785483 (1,4,7) 1.10839 (1,4,9) -0.862021 (1,5,8) 0.769498
(1,4,9): (1,3,9) -0.360125 (1,4,8) 0.862021 (1,4,10) -0.414155 (1,5,9) 9.874775E-02
(1,4,10): (1,3,10) -0.183657 (1,4,9) 0.414155 (1,5,10) -6.721217E-02
(1,5,1): (1,4,1) 5.451658E-02 (1,5,2) 0.241950 (1,6,1) -0.277045
(1,5,2): (1,4,2) 3.896222E-02 (1,5,1) -0.241950 (1,5,3) 0.682771 (1,6,2) -0.462810
(1,5,3): (1,4,3) -0.115290 (1,5,2) -0.682771 (1,5,4) 1.58233 (1,6,3) -0.755681
(1,5,4): (1,4,4) -0.776594 (1,5,3) -1.58233 (1,5,5) 2.83558 (1,6,4) -0.401256
(1,5,5): (1,4,5) -2.47299 (1,5,4) -2.83558 (1,5,6) 0.457131 (1,6,5) 5.00029
(1,5,6): (1,4,6) -2.57925 (1,5,5) -0.457131 (1,5,7) -0.445412 (1,6,6) 3.66834
(1,5,7): (1,4,7) -2.47063 (1,5,6) 0.445412 (1,5,8) -2.81472 (1,6,7) 4.99163
(1,5,8): (1,4,8) -0.769498 (1,5,7) 2.81472 (1,5,9) -1.53764 (1,6,8) -0.427340
(1,5,9): (1,4,9) -9.874775E-02 (1,5,8) 1.53764 (1,5,10) -0.580852 (1,6,9) -0.825486
(1,5,10): (1,4,10) 6.721217E-02 (1,5,9) 0.580852 (1,6,10) -0.631609
(1,6,1): (1,5,1) 0.277045 (1,6,2) 5.658981E-02 (1,7,1) -0.442845
(1,6,2): (1,5,2) 0.462810 (1,6,1) -5.658981E-02 (1,6,3) 0.390106 (1,7,2) -0.938540
(1,6,3): (1,5,3) 0.755681 (1,6,2) -0.390106 (1,6,4) 1.94084 (1,7,3) -2.47707
(1,6,4): (1,5,4) 0.401256 (1,6,3) -1.94084 (1,6,5) 8.38761 (1,7,4) -6.98155
(1,6,5): (1,5,5) -5.00029 (1,6,4) -8.38761 (1,6,6) -0.831669 (1,7,5) -21.5353
(1,6,6): (1,5,6) -3.66834 (1,6,5) 0.831669 (1,6,7) 0.835071 (1,7,6) -33.6917
(1,6,7): (1,5,7) -4.99163 (1,6,6) -0.835071 (1,6,8) -8.38476 (1,7,7) -21.5466
(1,6,8): (1,5,8) 0.427340 (1,6,7) 8.38476 (1,6,9) -1.94010 (1,7,8) -7.01702
(1,6,9): (1,5,9) 0.825486 (1,6,8) 1.94010 (1,6,10) -0.387428 (1,7,9) -2.57969
(1,6,10): (1,5,10) 0.631609 (1,6,9) 0.387428 (1,7,10) -1.22462
(1,7,1): (1,6,1) 0.442845 (1,7,2) -0.436666 (1,8,1) -0.238884
(1,7,2): (1,6,2) 0.938540 (1,7,1) 0.436666 (1,7,3) -1.12967 (1,8,2) -0.543077
(1,7,3): (1,6,3) 2.47707 (1,7,2) 1.12967 (1,7,4) -2.40968 (1,8,3) -1.57313
(1,7,4): (1,6,4) 6.98155 (1,7,3) 2.40968 (1,7,5) -4.90467 (1,8,4) -4.87149
(1,7,5): (1,6,5) 21.5353 (1,7,4) 4.90467 (1,7,6) -10.8680 (1,8,5) -15.8441
(1,7,6): (1,6,6) 33.6917 (1,7,5) 10.8680 (1,7,7) 10.8612 (1,8,6) -55.5717
(1,7,7): (1,6,7) 21.5466 (1,7,6) -10.8612 (1,7,8) 4.88245 (1,8,7) -15.8491
(1,7,8): (1,6,8) 7.01702 (1,7,7) -4.88245 (1,7,9) 2.34186 (1,8,8) -4.88916
(1,7,9): (1,6,9) 2.57969 (1,7,8) -2.34186 (1,7,10) 0.947502 (1,8,9) -1.62634
(1,7,10): (1,6,10) 1.22462 (1,7,9) -0.947502 (1,8,10) -0.698869
(1,8,1): (1,7,1) 0.238884 (1,8,2) -0.741470 (1,9,1) 0.217516
(1,8,2): (1,7,2) 0.543077 (1,8,1) 0.741470 (1,8,3) -2.16598 (1,9,2) 0.514478
(1,8,3): (1,7,3) 1.57313 (1,8,2) 2.16598 (1,8,4) -5.73785 (1,9,3) 1.51922
(1,8,4): (1,7,4) 4.87149 (1,8,3) 5.73785 (1,8,5) -15.8816 (1,9,4) 4.73603
(1,8,5): (1,7,5) 15.8441 (1,8,4) 15.8816 (1,8,6) -47.6589 (1,9,5) 15.4864
(1,8,6): (1,7,6) 55.5717 (1,8,5) 47.6589 (1,8,7) 47.6403 (1,9,6) 54.9722
(1,8,7): (1,7,7) 15.8491 (1,8,6) -47.6403 (1,8,8) 15.8416 (1,9,7) 15.4899
(1,8,8): (1,7,8) 4.88916 (1,8,7) -15.8416 (1,8,9) 5.62994 (1,9,8) 4.75049
(1,8,9): (1,7,9) 1.62634 (1,8,8) -5.62994 (1,8,10) 1.87738 (1,9,9) 1.56668
(1,8,10): (1,7,10) 0.698869 (1,8,9) -1.87738 (1,9,10) 0.660725
(1,9,1): (1,8,1) -0.217516 (1,9,2) -0.443824 (1,10,1) 0.426765
(1,9,2): (1,8,2) -0.514478 (1,9,1) 0.443824 (1,9,3) -1.15457 (1,10,2) 0.915889
(1,9,3): (1,8,3) -1.51922 (1,9,2) 1.15457 (1,9,4) -2.48732 (1,10,3) 2.42634
(1,9,4): (1,8,4) -4.73603 (1,9,3) 2.48732 (1,9,5) -5.08632 (1,10,4) 6.79879
(1,9,5): (1,8,5) -15.4864 (1,9,4) 5.08632 (1,9,6) -10.8914 (1,10,5) 20.6829
(1,9,6): (1,8,6) -54.9722 (1,9,5) 10.8914 (1,9,7) 10.8831 (1,10,6) 32.6357
(1,9,7): (1,8,7) -15.4899 (1,9,6) -10.8831 (1,9,8) 5.06220 (1,10,7) 20.6929
(1,9,8): (1,8,8) -4.75049 (1,9,7) -5.06220 (1,9,9) 2.41678 (1,10,8) 6.83184
(1,9,9): (1,8,9) -1.56668 (1,9,8) -2.41678 (1,9,10) 0.968514 (1,10,9) 2.52458
(1,9,10): (1,8,10) -0.660725 (1,9,9) -0.968514 (1,10,10) 1.19454
(1,10,1): (1,9,1) -0.426765 (1,10,2) 4.302173E-02 (1,11,1) 0.270847
(1,10,2): (1,9,2) -0.915889 (1,10,1) -4.302173E-02 (1,10,3) 0.338199 (1,11,2) 0.458733
(1,10,3): (1,9,3) -2.42634 (1,10,2) -0.338199 (1,10,4) 1.73930 (1,11,3) 0.770365
(1,10,4): (1,9,4) -6.79879 (1,10,3) -1.73930 (1,10,5) 7.60634 (1,11,4) 0.525253
(1,10,5): (1,9,5) -20.6829 (1,10,4) -7.60634 (1,10,6) -0.964644 (1,11,5) -4.31124
(1,10,6): (1,9,6) -32.6357 (1,10,5) 0.964644 (1,10,7) 0.965744 (1,11,6) -2.90930
(1,10,7): (1,9,7) -20.6929 (1,10,6) -0.965744 (1,10,8) -7.60670 (1,11,7) -4.30309
(1,10,8): (1,9,8) -6.83184 (1,10,7) 7.60670 (1,10,9) -1.74322 (1,11,8) 0.550250
(1,10,9): (1,9,9) -2.52458 (1,10,8) 1.74322 (1,10,10) -0.342414 (1,11,9) 0.838253
(1,10,10): (1,9,10) -1.19454 (1,10,9) 0.342414 (1,11,10) 0.624911
(1,11,1): (1,10,1) -0.270847 (1,11,2) 0.230484 (1,12,1) 5.650028E-02
(1,11,2): (1,10,2) -0.458733 (1,11,1) -0.230484 (1,11,3) 0.649466 (1,12,2) 4.373642E-02
(1,11,3): (1,10,3) -0.770365 (1,11,2) -0.649466 (1,11,4) 1.49184 (1,12,3) -9.610902E-02
(1,11,4): (1,10,4) -0.525253 (1,11,3) -1.49184 (1,11,5) 2.63754 (1,12,4) -0.702219
(1,11,5): (1,10,5) 4.31124 (1,11,4) -2.63754 (1,11,6) 0.399958 (1,12,5) -2.25329
(1,11,6): (1,10,6) 2.90930 (1,11,5) -0.399958 (1,11,7) -0.390982 (1,12,6) -2.32084
(1,11,7): (1,10,7) 4.30309 (1,11,6) 0.390982 (1,11,8) -2.62045 (1,12,7) -2.25081
(1,11,8): (1,10,8) -0.550250 (1,11,7) 2.62045 (1,11,9) -1.45265 (1,12,8) -0.694896
(1,11,9): (1,10,9) -0.838253 (1,11,8) 1.45265 (1,11,10) -0.555176 (1,12,9) -7.918568E-02
(1,11,10): (1,10,10) -0.624911 (1,11,9) 0.555176 (1,12,10) 7.285288E-02
(1,12,1): (1,11,1) -5.650028E-02 (1,12,2) 0.217698 (1,13,1) -6.156597E-02
(1,12,2): (1,11,2) -4.373642E-02 (1,12,1) -0.217698 (1,12,3) 0.508882 (1,13,2) -0.132118
(1,12,3): (1,11,3) 9.610902E-02 (1,12,2) -0.508882 (1,12,4) 0.881191 (1,13,3) -0.329295
(1,12,4): (1,11,4) 0.702219 (1,12,3) -0.881191 (1,12,5) 1.08113 (1,13,4) -0.746426
(1,12,5): (1,11,5) 2.25329 (1,12,4) -1.08113 (1,12,6) 0.333436 (1,13,5) -1.35208
(1,12,6): (1,11,6) 2.32084 (1,12,5) -0.333436 (1,12,7) -0.322025 (1,13,6) -1.50860
(1,12,7): (1,11,7) 2.25081 (1,12,6) 0.322025 (1,12,8) -1.05939 (1,13,7) -1.35365
(1,12,8): (1,11,8) 0.694896 (1,12,7) 1.05939 (1,12,9) -0.832519 (1,13,8) -0.751307
(1,12,9): (1,11,9) 7.918568E-02 (1,12,8) 0.832519 (1,12,10) -0.402482 (1,13,9) -0.343308
(1,12,10): (1,11,10) -7.285288E-02 (1,12,9) 0.402482 (1,13,10) -0.172108
(1,13,1): (1,12,1) 6.156597E-02 (1,13,2) 0.147087 (1,14,1) -8.213183E-02
(1,13,2): (1,12,2) 0.132118 (1,13,1) -0.147087 (1,13,3) 0.311359 (1,14,2) -0.142373
(1,13,3): (1,12,3) 0.329295 (1,13,2) -0.311359 (1,13,4) 0.463522 (1,14,3) -0.280963
(1,13,4): (1,12,4) 0.746426 (1,13,3) -0.463522 (1,13,5) 0.477010 (1,14,4) -0.509903
(1,13,5): (1,12,5) 1.35208 (1,13,4) -0.477010 (1,13,6) 0.178593 (1,14,5) -0.767964
(1,13,6): (1,12,6) 1.50860 (1,13,5) -0.178593 (1,13,7) -0.168753 (1,14,6) -0.859720
(1,13,7): (1,12,7) 1.35365 (1,13,6) 0.168753 (1,13,8) -0.458704 (1,14,7) -0.770665
(1,13,8): (1,12,8) 0.751307 (1,13,7) 0.458704 (1,13,9) -0.424204 (1,14,8) -0.517936
(1,13,9): (1,12,9) 0.343308 (1,13,8) 0.424204 (1,13,10) -0.231183 (1,14,9) -0.301544
(1,13,10): (1,12,10) 0.172108 (1,13,9) 0.231183 (1,14,10) -0.191647
(1,14,1): (1,13,1) 8.213183E-02 (1,14,2) 8.684245E-02 (1,15,1) -5.010426E-02
(1,14,2): (1,13,2) 0.142373 (1,14,1) -8.684245E-02 (1,14,3) 0.172729 (1,15,2) -8.108301E-02
(1,14,3): (1,13,3) 0.280963 (1,14,2) -0.172729 (1,14,4) 0.234685 (1,15,3) -0.146922
(1,14,4): (1,13,4) 0.509903 (1,14,3) -0.234685 (1,14,5) 0.219669 (1,15,4) -0.244246
(1,14,5): (1,13,5) 0.767964 (1,14,4) -0.219669 (1,14,6) 8.743206E-02 (1,15,5) -0.342164
(1,14,6): (1,13,6) 0.859720 (1,14,5) -8.743206E-02 (1,14,7) -8.028358E-02 (1,15,6) -0.380299
(1,14,7): (1,13,7) 0.770665 (1,14,6) 8.028358E-02 (1,14,8) -0.206731 (1,15,7) -0.343946
(1,14,8): (1,13,8) 0.517936 (1,14,7) 0.206731 (1,14,9) -0.208009 (1,15,8) -0.249457
(1,14,9): (1,13,9) 0.301544 (1,14,8) 0.208009 (1,14,10) -0.121362 (1,15,9) -0.159809
(1,14,10): (1,13,10) 0.191647 (1,14,9) 0.121362 (1,15,10) -0.110280
(1,15,1): (1,14,1) 5.010426E-02 (1,15,2) 5.586193E-02
(1,15,2): (1,14,2) 8.108301E-02 (1,15,1) -5.586193E-02 (1,15,3) 0.106872
(1,15,3): (1,14,3) 0.146922 (1,15,2) -0.106872 (1,15,4) 0.137370
(1,15,4): (1,14,4) 0.244246 (1,15,3) -0.137370 (1,15,5) 0.121868
(1,15,5): (1,14,5) 0.342164 (1,15,4) -0.121868 (1,15,6) 4.940600E-02
(1,15,6): (1,14,6) 0.380299 (1,15,5) -4.940600E-02 (1,15,7) -4.403660E-02
(1,15,7): (1,14,7) 0.343946 (1,15,6) 4.403660E-02 (1,15,8) -0.112369
(1,15,8): (1,14,8) 0.249457 (1,15,7) 0.112369 (1,15,9) -0.118398
(1,15,9): (1,14,9) 0.159809 (1,15,8) 0.118398 (1,15,10) -7.185195E-02
(1,15,10): (1,14,10) 0.110280 (1,15,9) 7.185195E-02

 WEL PACKAGE (WEL-1) FLOW RATES   PERIOD      2   STEP       78
 ----------------------------------------------------------------------------------------
   NUMBER   CELLID                    RATE       NAME                                    
 ----------------------------------------------------------------------------------------
     1      (1,8,6)              -205.91031      WEL                                     
 ----------------------------------------------------------------------------------------




 DRN PACKAGE (DRN-0) FLOW RATES   PERIOD      2   STEP       78
 ----------------------------------------------------------------------------------------
   NUMBER   CELLID                    RATE       NAME                                    
 ----------------------------------------------------------------------------------------
     1      (1,1,1)               0.0000000      SURF                                    
     2      (1,1,2)               0.0000000      SURF                                    
     3      (1,1,3)               0.0000000      SURF                                    
     4      (1,1,4)               0.0000000      SURF                                    
     5      (1,1,5)               0.0000000      SURF                                    
     6      (1,1,6)               0.0000000      SURF                                    
     7      (1,1,7)               0.0000000      SURF                                    
     8      (1,1,8)               0.0000000      SURF                                    
     9      (1,1,9)               0.0000000      SURF                                    
     10     (1,1,10)              0.0000000      SURF                                    
     11     (1,2,1)               0.0000000      SURF                                    
     12     (1,2,2)               0.0000000      SURF                                    
     13     (1,2,3)               0.0000000      SURF                                    
     14     (1,2,4)               0.0000000      SURF                                    
     15     (1,2,5)               0.0000000      SURF                                    
     16     (1,2,6)               0.0000000      SURF                                    
     17     (1,2,7)               0.0000000      SURF                                    
     18     (1,2,8)               0.0000000      SURF                                    
     19     (1,2,9)               0.0000000      SURF                                    
     20     (1,2,10)              0.0000000      SURF                                    
     21     (1,3,1)               0.0000000      SURF                                    
     22     (1,3,2)               0.0000000      SURF                                    
     23     (1,3,3)               0.0000000      SURF                                    
     24     (1,3,4)               0.0000000      SURF                                    
     25     (1,3,5)               0.0000000      SURF                                    
     26     (1,3,6)               0.0000000      SURF                                    
     27     (1,3,7)               0.0000000      SURF                                    
     28     (1,3,8)               0.0000000      SURF                                    
     29     (1,3,9)               0.0000000      SURF                                    
     30     (1,3,10)              0.0000000      SURF                                    
     31     (1,4,1)               0.0000000      SURF                                    
     32     (1,4,2)               0.0000000      SURF                                    
     33     (1,4,3)               0.0000000      SURF                                    
     34     (1,4,4)               0.0000000      SURF                                    
     35     (1,4,5)               0.0000000      SURF                                    
     36     (1,4,6)               0.0000000      SURF                                    
     37     (1,4,7)               0.0000000      SURF                                    
     38     (1,4,8)               0.0000000      SURF                                    
     39     (1,4,9)               0.0000000      SURF                                    
     40     (1,4,10)              0.0000000      SURF                                    
     41     (1,5,1)               0.0000000      SURF                                    
     42     (1,5,2)               0.0000000      SURF                                    
     43     (1,5,3)               0.0000000      SURF                                    
     44     (1,5,4)               0.0000000      SURF                                    
     45     (1,5,5)               0.0000000      SURF                                    
     46     (1,5,6)               0.0000000      SURF                                    
     47     (1,5,7)               0.0000000      SURF                                    
     48     (1,5,8)               0.0000000      SURF                                    
     49     (1,5,9)               0.0000000      SURF                                    
     50     (1,5,10)              0.0000000      SURF                                    
     51     (1,6,1)               0.0000000      SURF                                    
     52     (1,6,2)               0.0000000      SURF                                    
     53     (1,6,3)               0.0000000      SURF                                    
     54     (1,6,4)               0.0000000      SURF                                    
     55     (1,6,5)               0.0000000      SURF                                    
     56     (1,6,6)               0.0000000      SURF                                    
     57     (1,6,7)              -3.16140358E-07 SURF                                    
     58     (1,6,8)               0.0000000      SURF                                    
     59     (1,6,9)               0.0000000      SURF                                    
     60     (1,6,10)              0.0000000      SURF                                    
     61     (1,7,1)               0.0000000      SURF                                    
     62     (1,7,2)               0.0000000      SURF                                    
     63     (1,7,3)               0.0000000      SURF                                    
     64     (1,7,4)               0.0000000      SURF                                    
     65     (1,7,5)               0.0000000      SURF                                    
     66     (1,7,6)               0.0000000      SURF                                    
     67     (1,7,7)               0.0000000      SURF                                    
     68     (1,7,8)               0.0000000      SURF                                    
     69     (1,7,9)               0.0000000      SURF                                    
     70     (1,7,10)              0.0000000      SURF                                    
     71     (1,8,1)               0.0000000      SURF                                    
     72     (1,8,2)               0.0000000      SURF                                    
     73     (1,8,3)               0.0000000      SURF                                    
     74     (1,8,4)               0.0000000      SURF                                    
     75     (1,8,5)               0.0000000      SURF                                    
     76     (1,8,6)               0.0000000      SURF                                    
     77     (1,8,7)               0.0000000      SURF                                    
     78     (1,8,8)               0.0000000      SURF                                    
     79     (1,8,9)               0.0000000      SURF                                    
     80     (1,8,10)              0.0000000      SURF                                    
     81     (1,9,1)               0.0000000      SURF                                    
     82     (1,9,2)               0.0000000      SURF                                    
     83     (1,9,3)               0.0000000      SURF                                    
     84     (1,9,4)               0.0000000      SURF                                    
     85     (1,9,5)               0.0000000      SURF                                    
     86     (1,9,6)               0.0000000      SURF                                    
     87     (1,9,7)               0.0000000      SURF                                    
     88     (1,9,8)               0.0000000      SURF                                    
     89     (1,9,9)               0.0000000      SURF                                    
     90     (1,9,10)              0.0000000      SURF                                    
     91     (1,10,1)              0.0000000      SURF                                    
     92     (1,10,2)              0.0000000      SURF                                    
     93     (1,10,3)              0.0000000      SURF                                    
     94     (1,10,4)              0.0000000      SURF                                    
     95     (1,10,5)              0.0000000      SURF                                    
     96     (1,10,6)              0.0000000      SURF                                    
     97     (1,10,7)              0.0000000      SURF                                    
     98     (1,10,8)              0.0000000      SURF                                    
     99     (1,10,9)              0.0000000      SURF                                    
    100     (1,10,10)             0.0000000      SURF                                    
    101     (1,11,1)              0.0000000      SURF                                    
    102     (1,11,2)              0.0000000      SURF                                    
    103     (1,11,3)              0.0000000      SURF                                    
    104     (1,11,4)              0.0000000      SURF                                    
    105     (1,11,5)              0.0000000      SURF                                    
    106     (1,11,6)              0.0000000      SURF                                    
    107     (1,11,7)              0.0000000      SURF                                    
    108     (1,11,8)              0.0000000      SURF                                    
    109     (1,11,9)              0.0000000      SURF                                    
    110     (1,11,10)             0.0000000      SURF                                    
    111     (1,12,1)              0.0000000      SURF                                    
    112     (1,12,2)              0.0000000      SURF                                    
    113     (1,12,3)              0.0000000      SURF                                    
    114     (1,12,4)              0.0000000      SURF                                    
    115     (1,12,5)              0.0000000      SURF                                    
    116     (1,12,6)              0.0000000      SURF                                    
    117     (1,12,7)              0.0000000      SURF                                    
    118     (1,12,8)              0.0000000      SURF                                    
    119     (1,12,9)              0.0000000      SURF                                    
    120     (1,12,10)             0.0000000      SURF                                    
    121     (1,13,1)              0.0000000      SURF                                    
    122     (1,13,2)              0.0000000      SURF                                    
    123     (1,13,3)              0.0000000      SURF                                    
    124     (1,13,4)              0.0000000      SURF                                    
    125     (1,13,5)              0.0000000      SURF                                    
    126     (1,13,6)              0.0000000      SURF                                    
    127     (1,13,7)              0.0000000      SURF                                    
    128     (1,13,8)              0.0000000      SURF                                    
    129     (1,13,9)              0.0000000      SURF                                    
    130     (1,13,10)             0.0000000      SURF                                    
    131     (1,14,1)              0.0000000      SURF                                    
    132     (1,14,2)              0.0000000      SURF                                    
    133     (1,14,3)              0.0000000      SURF                                    
    134     (1,14,4)              0.0000000      SURF                                    
    135     (1,14,5)              0.0000000      SURF                                    
    136     (1,14,6)              0.0000000      SURF                                    
    137     (1,14,7)              0.0000000      SURF                                    
    138     (1,14,8)              0.0000000      SURF                                    
    139     (1,14,9)              0.0000000      SURF                                    
    140     (1,14,10)             0.0000000      SURF                                    
    141     (1,15,1)              0.0000000      SURF                                    
    142     (1,15,2)              0.0000000      SURF                                    
    143     (1,15,3)              0.0000000      SURF                                    
    144     (1,15,4)              0.0000000      SURF                                    
    145     (1,15,5)              0.0000000      SURF                                    
    146     (1,15,6)              0.0000000      SURF                                    
    147     (1,15,7)              0.0000000      SURF                                    
    148     (1,15,8)              0.0000000      SURF                                    
    149     (1,15,9)              0.0000000      SURF                                    
    150     (1,15,10)             0.0000000      SURF                                    
 ----------------------------------------------------------------------------------------




 API PACKAGE (MAR) FLOW RATES   PERIOD      2   STEP       78
 -----------------------------------------------
   NUMBER   CELLID                    RATE      
 -----------------------------------------------
     1      (1,6,5)               35.758070     
     2      (1,6,6)               35.758070     
     3      (1,6,7)               35.758070     
     4      (1,10,5)              32.878699     
     5      (1,10,6)              32.878699     
     6      (1,10,7)              32.878699     
 -----------------------------------------------



1
  HEAD IN LAYER   1 AT END OF TIME STEP  78 IN STRESS PERIOD    2
  ---------------------------------------------------------------------------

            1           2           3           4           5           6           7           8           9          10
 ........................................................................................................................
   1   1.4889E-02  2.0934E-02  3.2389E-02  4.6959E-02  5.9790E-02  6.5004E-02  6.0455E-02  4.8755E-02  3.6366E-02  2.8810E-02
   2   2.0376E-02  2.9584E-02  4.7720E-02  7.2110E-02  9.4797E-02  0.1038      9.5666E-02  7.4492E-02  5.3105E-02  4.0571E-02
   3   2.9330E-02  4.4654E-02  7.6789E-02  0.1242      0.1728      0.1911      0.1740      0.1275      8.4403E-02  6.0842E-02
   4   3.6146E-02  5.8650E-02  0.1108      0.2006      0.3106      0.3447      0.3119      0.2045      0.1200      7.9064E-02
   5   3.0714E-02  5.4777E-02  0.1222      0.2762      0.5451      0.5883      0.5462      0.2793      0.1297      7.2395E-02
   6   3.0939E-03  8.7479E-03  4.7574E-02  0.2372      0.9997      0.9241       1.000      0.2377      4.8245E-02  9.6886E-03
   7  -4.1177E-02 -8.5024E-02 -0.1990     -0.4448     -0.9581      -2.160     -0.9588     -0.4477     -0.2085     -0.1127    
   8  -6.5164E-02 -0.1398     -0.3595     -0.9546      -2.710      -9.248      -2.712     -0.9595     -0.3746     -0.1833    
   9  -4.3318E-02 -8.7893E-02 -0.2044     -0.4583     -0.9914      -2.200     -0.9922     -0.4615     -0.2145     -0.1165    
  10  -6.3868E-04  3.6619E-03  3.7356E-02  0.2077      0.9052      0.8168      0.9053      0.2078      3.7047E-02  2.9316E-03
  11   2.6375E-02  4.9310E-02  0.1135      0.2589      0.5099      0.5478      0.5108      0.2614      0.1199      6.5019E-02
  12   3.2007E-02  5.3660E-02  0.1040      0.1905      0.2955      0.3278      0.2966      0.1937      0.1121      7.2252E-02
  13   2.5870E-02  4.0519E-02  7.1434E-02  0.1172      0.1642      0.1817      0.1651      0.1200      7.8104E-02  5.5165E-02
  14   1.7678E-02  2.6339E-02  4.3537E-02  6.6850E-02  8.8624E-02  9.7283E-02  8.9332E-02  6.8842E-02  4.8183E-02  3.6105E-02
  15   1.2676E-02  1.8252E-02  2.8909E-02  4.2587E-02  5.4708E-02  5.9619E-02  5.5242E-02  4.4067E-02  3.2279E-02  2.5117E-02

 HEAD WILL BE SAVED ON UNIT 1100 AT END OF TIME STEP   78, STRESS PERIOD    2


  VOLUME BUDGET FOR ENTIRE MODEL AT END OF TIME STEP   78, STRESS PERIOD   2
  ---------------------------------------------------------------------------------------------------

     CUMULATIVE VOLUME      L**3       RATES FOR THIS TIME STEP      L**3/T          PACKAGE NAME    
     ------------------                 ------------------------                     ----------------

           IN:                                      IN:
           ---                                      ---
              STO-SS =          24.5793                STO-SS =       8.7480E-03     STORAGE                          
              STO-SY =       60718.6650                STO-SY =          18.1858     STORAGE                          
                 WEL =           0.0000                   WEL =           0.0000     WEL-1                            
                 DRN =           0.0000                   DRN =           0.0000     DRN-0                            
                 API =      159537.8436                   API =         205.9103     MAR                              
                 CHD =       2.0279E-08                   CHD =           0.0000     CHD_0                            

            TOTAL IN =      220281.0879              TOTAL IN =         224.1048

          OUT:                                     OUT:
          ----                                     ----
              STO-SS =          21.0697                STO-SS =       9.2001E-03     STORAGE                          
              STO-SY =       41153.3681                STO-SY =          18.1853     STORAGE                          
                 WEL =      179106.6499                   WEL =         205.9103     WEL-1                            
                 DRN =       2.6026E-04                   DRN =       3.1614E-07     DRN-0                            
                 API =           0.0000                   API =           0.0000     MAR                              
                 CHD =       2.0705E-08                   CHD =           0.0000     CHD_0                            

           TOTAL OUT =      220281.0879             TOTAL OUT =         224.1048

            IN - OUT =      -1.0300E-06              IN - OUT =       7.9385E-10

 PERCENT DISCREPANCY =          -0.00     PERCENT DISCREPANCY =           0.00




         TIME SUMMARY AT END OF TIME STEP   78 IN STRESS PERIOD    2
                    SECONDS     MINUTES      HOURS       DAYS        YEARS
                    -----------------------------------------------------------
   TIME STEP LENGTH 8.64000E+05  14400.      240.00      10.000     2.73785E-02
 STRESS PERIOD TIME 6.73920E+07 1.12320E+06  18720.      780.00      2.1355    
         TOTAL TIME 6.74784E+07 1.12464E+06  18744.      781.00      2.1383    


end timestep


start timestep kper="2" kstp="79" mode="normal"

 UBDSV1 SAVING           STO-SS ON UNIT   1099 AT TIME STEP     79, STRESS PERIOD      2
 UBDSV1 SAVING           STO-SY ON UNIT   1099 AT TIME STEP     79, STRESS PERIOD      2
 UBDSV1 SAVING     FLOW-JA-FACE ON UNIT   1099 AT TIME STEP     79, STRESS PERIOD      2
 UBDSV06 SAVING       DATA-SPDIS IN MODEL GWF              PACKAGE NPF             CONNECTED TO MODEL GWF              PACKAGE NPF              ON UNIT   1099 AT TIME STEP     79, STRESS PERIOD      2
 UBDSV06 SAVING              WEL IN MODEL GWF              PACKAGE GWF             CONNECTED TO MODEL GWF              PACKAGE WEL-1            ON UNIT   1099 AT TIME STEP     79, STRESS PERIOD      2
 UBDSV06 SAVING              DRN IN MODEL GWF              PACKAGE GWF             CONNECTED TO MODEL GWF              PACKAGE DRN-0            ON UNIT   1099 AT TIME STEP     79, STRESS PERIOD      2
 UBDSV06 SAVING              API IN MODEL GWF              PACKAGE GWF             CONNECTED TO MODEL GWF              PACKAGE MAR              ON UNIT   1099 AT TIME STEP     79, STRESS PERIOD      2
 UBDSV06 SAVING              CHD IN MODEL GWF              PACKAGE GWF             CONNECTED TO MODEL GWF              PACKAGE CHD_0            ON UNIT   1099 AT TIME STEP     79, STRESS PERIOD      2

    CALCULATED INTERCELL FLOW FOR PERIOD 2 STEP 79
(1,1,1): (1,1,2) 6.184306E-02 (1,2,1) 5.552210E-02
(1,1,2): (1,1,1) -6.184306E-02 (1,1,3) 0.117138 (1,2,2) 8.738461E-02
(1,1,3): (1,1,2) -0.117138 (1,1,4) 0.148908 (1,2,3) 0.154835
(1,1,4): (1,1,3) -0.148908 (1,1,5) 0.131123 (1,2,4) 0.254359
(1,1,5): (1,1,4) -0.131123 (1,1,6) 5.335090E-02 (1,2,5) 0.354658
(1,1,6): (1,1,5) -5.335090E-02 (1,1,7) -4.631155E-02 (1,2,6) 0.393821
(1,1,7): (1,1,6) 4.631155E-02 (1,1,8) -0.119248 (1,2,7) 0.356796
(1,1,8): (1,1,7) 0.119248 (1,1,9) -0.126267 (1,2,8) 0.260398
(1,1,9): (1,1,8) 0.126267 (1,1,10) -7.697343E-02 (1,2,9) 0.169220
(1,1,10): (1,1,9) 7.697343E-02 (1,2,10) 0.118927
(1,2,1): (1,1,1) -5.552210E-02 (1,2,2) 9.370756E-02 (1,3,1) 9.000610E-02
(1,2,2): (1,1,2) -8.738461E-02 (1,2,1) -9.370756E-02 (1,2,3) 0.184608 (1,3,2) 0.151548
(1,2,3): (1,1,3) -0.154835 (1,2,2) -0.184608 (1,2,4) 0.248426 (1,3,3) 0.293126
(1,2,4): (1,1,4) -0.254359 (1,2,3) -0.248426 (1,2,5) 0.231302 (1,3,4) 0.527925
(1,2,5): (1,1,5) -0.354658 (1,2,4) -0.231302 (1,2,6) 9.239905E-02 (1,3,5) 0.794636
(1,2,6): (1,1,6) -0.393821 (1,2,5) -9.239905E-02 (1,2,7) -8.322529E-02 (1,3,6) 0.889877
(1,2,7): (1,1,7) -0.356796 (1,2,6) 8.322529E-02 (1,2,8) -0.215513 (1,3,7) 0.797875
(1,2,8): (1,1,8) -0.260398 (1,2,7) 0.215513 (1,2,9) -0.217407 (1,3,8) 0.537184
(1,2,9): (1,1,9) -0.169220 (1,2,8) 0.217407 (1,2,10) -0.127246 (1,3,9) 0.315868
(1,2,10): (1,1,10) -0.118927 (1,2,9) 0.127246 (1,3,10) 0.204130
(1,3,1): (1,2,1) -9.000610E-02 (1,3,2) 0.155251 (1,4,1) 6.687694E-02
(1,3,2): (1,2,2) -0.151548 (1,3,1) -0.155251 (1,3,3) 0.326233 (1,4,2) 0.138830
(1,3,3): (1,2,3) -0.293126 (1,3,2) -0.326233 (1,3,4) 0.483123 (1,4,3) 0.341811
(1,3,4): (1,2,4) -0.527925 (1,3,3) -0.483123 (1,3,5) 0.497254 (1,4,4) 0.776953
(1,3,5): (1,2,5) -0.794636 (1,3,4) -0.497254 (1,3,6) 0.187006 (1,4,5) 1.41810
(1,3,6): (1,2,6) -0.889877 (1,3,5) -0.187006 (1,3,7) -0.174603 (1,4,6) 1.58710
(1,3,7): (1,2,7) -0.797875 (1,3,6) 0.174603 (1,3,8) -0.475400 (1,4,7) 1.42007
(1,3,8): (1,2,8) -0.537184 (1,3,7) 0.475400 (1,3,9) -0.438511 (1,4,8) 0.782687
(1,3,9): (1,2,9) -0.315868 (1,3,8) 0.438511 (1,3,10) -0.238899 (1,4,9) 0.357215
(1,3,10): (1,2,10) -0.204130 (1,3,9) 0.238899 (1,4,10) 0.180864
(1,4,1): (1,3,1) -6.687694E-02 (1,4,2) 0.227268 (1,5,1) -5.875645E-02
(1,4,2): (1,3,2) -0.138830 (1,4,1) -0.227268 (1,4,3) 0.529585 (1,5,2) -4.420400E-02
(1,4,3): (1,3,3) -0.341811 (1,4,2) -0.529585 (1,4,4) 0.918854 (1,5,3) 0.108760
(1,4,4): (1,3,4) -0.776953 (1,4,3) -0.918854 (1,4,5) 1.13673 (1,5,4) 0.769585
(1,4,5): (1,3,5) -1.41810 (1,4,4) -1.13673 (1,4,6) 0.354114 (1,5,5) 2.46679
(1,4,6): (1,3,6) -1.58710 (1,4,5) -0.354114 (1,4,7) -0.339737 (1,5,6) 2.57362
(1,4,7): (1,3,7) -1.42007 (1,4,6) 0.339737 (1,4,8) -1.11096 (1,5,7) 2.46421
(1,4,8): (1,3,8) -0.782687 (1,4,7) 1.11096 (1,4,9) -0.864315 (1,5,8) 0.761926
(1,4,9): (1,3,9) -0.357215 (1,4,8) 0.864315 (1,4,10) -0.415350 (1,5,9) 9.103048E-02
(1,4,10): (1,3,10) -0.180864 (1,4,9) 0.415350 (1,5,10) -7.458347E-02
(1,5,1): (1,4,1) 5.875645E-02 (1,5,2) 0.241847 (1,6,1) -0.283444
(1,5,2): (1,4,2) 4.420400E-02 (1,5,1) -0.241847 (1,5,3) 0.683388 (1,6,2) -0.470688
(1,5,3): (1,4,3) -0.108760 (1,5,2) -0.683388 (1,5,4) 1.58477 (1,6,3) -0.765533
(1,5,4): (1,4,4) -0.769585 (1,5,3) -1.58477 (1,5,5) 2.83956 (1,6,4) -0.411701
(1,5,5): (1,4,5) -2.46679 (1,5,4) -2.83956 (1,5,6) 0.459113 (1,6,5) 4.99250
(1,5,6): (1,4,6) -2.57362 (1,5,5) -0.459113 (1,5,7) -0.447252 (1,6,6) 3.66196
(1,5,7): (1,4,7) -2.46421 (1,5,6) 0.447252 (1,5,8) -2.81861 (1,6,7) 4.98350
(1,5,8): (1,4,8) -0.761926 (1,5,7) 2.81861 (1,5,9) -1.54014 (1,6,8) -0.438630
(1,5,9): (1,4,9) -9.103048E-02 (1,5,8) 1.54014 (1,5,10) -0.581703 (1,6,9) -0.837100
(1,5,10): (1,4,10) 7.458347E-02 (1,5,9) 0.581703 (1,6,10) -0.642610
(1,6,1): (1,5,1) 0.283444 (1,6,2) 5.502510E-02 (1,7,1) -0.448907
(1,6,2): (1,5,2) 0.470688 (1,6,1) -5.502510E-02 (1,6,3) 0.388777 (1,7,2) -0.946082
(1,6,3): (1,5,3) 0.765533 (1,6,2) -0.388777 (1,6,4) 1.94266 (1,7,3) -2.48689
(1,6,4): (1,5,4) 0.411701 (1,6,3) -1.94266 (1,6,5) 8.39493 (1,7,4) -6.99356
(1,6,5): (1,5,5) -4.99250 (1,6,4) -8.39493 (1,6,6) -0.828382 (1,7,5) -21.5500
(1,6,6): (1,5,6) -3.66196 (1,6,5) 0.828382 (1,6,7) 0.831596 (1,7,6) -33.7040
(1,6,7): (1,5,7) -4.98350 (1,6,6) -0.831596 (1,6,8) -8.39254 (1,7,7) -21.5615
(1,6,8): (1,5,8) 0.438630 (1,6,7) 8.39254 (1,6,9) -1.94289 (1,7,8) -7.02982
(1,6,9): (1,5,9) 0.837100 (1,6,8) 1.94289 (1,6,10) -0.387688 (1,7,9) -2.59115
(1,6,10): (1,5,10) 0.642610 (1,6,9) 0.387688 (1,7,10) -1.23508
(1,7,1): (1,6,1) 0.448907 (1,7,2) -0.439679 (1,8,1) -0.241428
(1,7,2): (1,6,2) 0.946082 (1,7,1) 0.439679 (1,7,3) -1.13315 (1,8,2) -0.546381
(1,7,3): (1,6,3) 2.48689 (1,7,2) 1.13315 (1,7,4) -2.40951 (1,8,3) -1.57782
(1,7,4): (1,6,4) 6.99356 (1,7,3) 2.40951 (1,7,5) -4.89843 (1,8,4) -4.87765
(1,7,5): (1,6,5) 21.5500 (1,7,4) 4.89843 (1,7,6) -10.8611 (1,8,5) -15.8496
(1,7,6): (1,6,6) 33.7040 (1,7,5) 10.8611 (1,7,7) 10.8538 (1,8,6) -55.5635
(1,7,7): (1,6,7) 21.5615 (1,7,6) -10.8538 (1,7,8) 4.87524 (1,8,7) -15.8547
(1,7,8): (1,6,8) 7.02982 (1,7,7) -4.87524 (1,7,9) 2.33983 (1,8,8) -4.89562
(1,7,9): (1,6,9) 2.59115 (1,7,8) -2.33983 (1,7,10) 0.948088 (1,8,9) -1.63169
(1,7,10): (1,6,10) 1.23508 (1,7,9) -0.948088 (1,8,10) -0.703388
(1,8,1): (1,7,1) 0.241428 (1,8,2) -0.745247 (1,9,1) 0.219943
(1,8,2): (1,7,2) 0.546381 (1,8,1) 0.745247 (1,8,3) -2.17085 (1,9,2) 0.517139
(1,8,3): (1,7,3) 1.57782 (1,8,2) 2.17085 (1,8,4) -5.73901 (1,9,3) 1.52134
(1,8,4): (1,7,4) 4.87765 (1,8,3) 5.73901 (1,8,5) -15.8731 (1,9,4) 4.73448
(1,8,5): (1,7,5) 15.8496 (1,8,4) 15.8731 (1,8,6) -47.6313 (1,9,5) 15.4739
(1,8,6): (1,7,6) 55.5635 (1,8,5) 47.6313 (1,8,7) 47.6117 (1,9,6) 54.9335
(1,8,7): (1,7,7) 15.8547 (1,8,6) -47.6117 (1,8,8) 15.8317 (1,9,7) 15.4775
(1,8,8): (1,7,8) 4.89562 (1,8,7) -15.8317 (1,8,9) 5.62878 (1,9,8) 4.74924
(1,8,9): (1,7,9) 1.63169 (1,8,8) -5.62878 (1,8,10) 1.87875 (1,9,9) 1.56947
(1,8,10): (1,7,10) 0.703388 (1,8,9) -1.87875 (1,9,10) 0.664526
(1,9,1): (1,8,1) -0.219943 (1,9,2) -0.447362 (1,10,1) 0.432724
(1,9,2): (1,8,2) -0.517139 (1,9,1) 0.447362 (1,9,3) -1.15996 (1,10,2) 0.922995
(1,9,3): (1,8,3) -1.52134 (1,9,2) 1.15996 (1,9,4) -2.49207 (1,10,3) 2.43428
(1,9,4): (1,8,4) -4.73448 (1,9,3) 2.49207 (1,9,5) -5.08836 (1,10,4) 6.80370
(1,9,5): (1,8,5) -15.4739 (1,9,4) 5.08836 (1,9,6) -10.8858 (1,10,5) 20.6721
(1,9,6): (1,8,6) -54.9335 (1,9,5) 10.8858 (1,9,7) 10.8770 (1,10,6) 32.6154
(1,9,7): (1,8,7) -15.4775 (1,9,6) -10.8770 (1,9,8) 5.06327 (1,10,7) 20.6825
(1,9,8): (1,8,8) -4.74924 (1,9,7) -5.06327 (1,9,9) 2.41967 (1,10,8) 6.83752
(1,9,9): (1,8,9) -1.56947 (1,9,8) -2.41967 (1,9,10) 0.970926 (1,10,9) 2.53416
(1,9,10): (1,8,10) -0.664526 (1,9,9) -0.970926 (1,10,10) 1.20451
(1,10,1): (1,9,1) -0.432724 (1,10,2) 4.060650E-02 (1,11,1) 0.277270
(1,10,2): (1,9,2) -0.922995 (1,10,1) -4.060650E-02 (1,10,3) 0.333560 (1,11,2) 0.466950
(1,10,3): (1,9,3) -2.43428 (1,10,2) -0.333560 (1,10,4) 1.73132 (1,11,3) 0.781769
(1,10,4): (1,9,4) -6.80370 (1,10,3) -1.73132 (1,10,5) 7.58904 (1,11,4) 0.541450
(1,10,5): (1,9,5) -20.6721 (1,10,4) -7.58904 (1,10,6) -0.967037 (1,11,5) -4.28308
(1,10,6): (1,9,6) -32.6154 (1,10,5) 0.967037 (1,10,7) 0.967939 (1,11,6) -2.88032
(1,10,7): (1,9,7) -20.6825 (1,10,6) -0.967939 (1,10,8) -7.58985 (1,11,7) -4.27460
(1,10,8): (1,9,8) -6.83752 (1,10,7) 7.58985 (1,10,9) -1.73621 (1,11,8) 0.567276
(1,10,9): (1,9,9) -2.53416 (1,10,8) 1.73621 (1,10,10) -0.339490 (1,11,9) 0.851414
(1,10,10): (1,9,10) -1.20451 (1,10,9) 0.339490 (1,11,10) 0.636327
(1,11,1): (1,10,1) -0.277270 (1,11,2) 0.229843 (1,12,1) 6.072835E-02
(1,11,2): (1,10,2) -0.466950 (1,11,1) -0.229843 (1,11,3) 0.647970 (1,12,2) 4.934659E-02
(1,11,3): (1,10,3) -0.781769 (1,11,2) -0.647970 (1,11,4) 1.48874 (1,12,3) -8.788820E-02
(1,11,4): (1,10,4) -0.541450 (1,11,3) -1.48874 (1,11,5) 2.63216 (1,12,4) -0.690105
(1,11,5): (1,10,5) 4.28308 (1,11,4) -2.63216 (1,11,6) 0.398673 (1,12,5) -2.23580
(1,11,6): (1,10,6) 2.88032 (1,11,5) -0.398673 (1,11,7) -0.389578 (1,12,6) -2.30189
(1,11,7): (1,10,7) 4.27460 (1,11,6) 0.389578 (1,11,8) -2.61498 (1,12,7) -2.23310
(1,11,8): (1,10,8) -0.567276 (1,11,7) 2.61498 (1,11,9) -1.44959 (1,12,8) -0.682241
(1,11,9): (1,10,9) -0.851414 (1,11,8) 1.44959 (1,11,10) -0.553962 (1,12,9) -6.980312E-02
(1,11,10): (1,10,10) -0.636327 (1,11,9) 0.553962 (1,12,10) 8.064452E-02
(1,12,1): (1,11,1) -6.072835E-02 (1,12,2) 0.218442 (1,13,1) -6.013770E-02
(1,12,2): (1,11,2) -4.934659E-02 (1,12,1) -0.218442 (1,12,3) 0.510006 (1,13,2) -0.130089
(1,12,3): (1,11,3) 8.788820E-02 (1,12,2) -0.510006 (1,12,4) 0.881960 (1,13,3) -0.326104
(1,12,4): (1,11,4) 0.690105 (1,12,3) -0.881960 (1,12,5) 1.08098 (1,13,4) -0.741539
(1,12,5): (1,11,5) 2.23580 (1,12,4) -1.08098 (1,12,6) 0.333574 (1,13,5) -1.34521
(1,12,6): (1,11,6) 2.30189 (1,12,5) -0.333574 (1,12,7) -0.321841 (1,13,6) -1.50106
(1,12,7): (1,11,7) 2.23310 (1,12,6) 0.321841 (1,12,8) -1.05882 (1,13,7) -1.34673
(1,12,8): (1,11,8) 0.682241 (1,12,7) 1.05882 (1,12,9) -0.832697 (1,13,8) -0.746250
(1,12,9): (1,11,9) 6.980312E-02 (1,12,8) 0.832697 (1,12,10) -0.402865 (1,13,9) -0.339718
(1,12,10): (1,11,10) -8.064452E-02 (1,12,9) 0.402865 (1,13,10) -0.169270
(1,13,1): (1,12,1) 6.013770E-02 (1,13,2) 0.148430 (1,14,1) -8.244514E-02
(1,13,2): (1,12,2) 0.130089 (1,13,1) -0.148430 (1,13,3) 0.313639 (1,14,2) -0.142631
(1,13,3): (1,12,3) 0.326104 (1,13,2) -0.313639 (1,13,4) 0.465968 (1,14,3) -0.281081
(1,13,4): (1,12,4) 0.741539 (1,13,3) -0.465968 (1,13,5) 0.478790 (1,14,4) -0.509748
(1,13,5): (1,12,5) 1.34521 (1,13,4) -0.478790 (1,13,6) 0.179386 (1,14,5) -0.767443
(1,13,6): (1,12,6) 1.50106 (1,13,5) -0.179386 (1,13,7) -0.169167 (1,14,6) -0.859080
(1,13,7): (1,12,7) 1.34673 (1,13,6) 0.169167 (1,13,8) -0.459949 (1,14,7) -0.770174
(1,13,8): (1,12,8) 0.746250 (1,13,7) 0.459949 (1,13,9) -0.425829 (1,14,8) -0.517842
(1,13,9): (1,12,9) 0.339718 (1,13,8) 0.425829 (1,13,10) -0.232312 (1,14,9) -0.301744
(1,13,10): (1,12,10) 0.169270 (1,13,9) 0.232312 (1,14,10) -0.191981
(1,14,1): (1,13,1) 8.244514E-02 (1,14,2) 8.824054E-02 (1,15,1) -5.071297E-02
(1,14,2): (1,13,2) 0.142631 (1,14,1) -8.824054E-02 (1,14,3) 0.175145 (1,15,2) -8.178993E-02
(1,14,3): (1,13,3) 0.281081 (1,14,2) -0.175145 (1,14,4) 0.237398 (1,15,3) -0.147788
(1,14,4): (1,13,4) 0.509748 (1,14,3) -0.237398 (1,14,5) 0.221808 (1,15,4) -0.245265
(1,14,5): (1,13,5) 0.767443 (1,14,4) -0.221808 (1,14,6) 8.834054E-02 (1,15,5) -0.343276
(1,14,6): (1,13,6) 0.859080 (1,14,5) -8.834054E-02 (1,14,7) -8.084495E-02 (1,15,6) -0.381459
(1,14,7): (1,13,7) 0.770174 (1,14,6) 8.084495E-02 (1,14,8) -0.208367 (1,15,7) -0.345097
(1,14,8): (1,13,8) 0.517842 (1,14,7) 0.208367 (1,14,9) -0.209924 (1,15,8) -0.250567
(1,14,9): (1,13,9) 0.301744 (1,14,8) 0.209924 (1,14,10) -0.122624 (1,15,9) -0.160840
(1,14,10): (1,13,10) 0.191981 (1,14,9) 0.122624 (1,15,10) -0.111247
(1,15,1): (1,14,1) 5.071297E-02 (1,15,2) 5.716159E-02
(1,15,2): (1,14,2) 8.178993E-02 (1,15,1) -5.716159E-02 (1,15,3) 0.109129
(1,15,3): (1,14,3) 0.147788 (1,15,2) -0.109129 (1,15,4) 0.139929
(1,15,4): (1,14,4) 0.245265 (1,15,3) -0.139929 (1,15,5) 0.123914
(1,15,5): (1,14,5) 0.343276 (1,15,4) -0.123914 (1,15,6) 5.026648E-02
(1,15,6): (1,14,6) 0.381459 (1,15,5) -5.026648E-02 (1,15,7) -4.458986E-02
(1,15,7): (1,14,7) 0.345097 (1,15,6) 4.458986E-02 (1,15,8) -0.113964
(1,15,8): (1,14,8) 0.250567 (1,15,7) 0.113964 (1,15,9) -0.120233
(1,15,9): (1,14,9) 0.160840 (1,15,8) 0.120233 (1,15,10) -7.304915E-02
(1,15,10): (1,14,10) 0.111247 (1,15,9) 7.304915E-02

 WEL PACKAGE (WEL-1) FLOW RATES   PERIOD      2   STEP       79
 ----------------------------------------------------------------------------------------
   NUMBER   CELLID                    RATE       NAME                                    
 ----------------------------------------------------------------------------------------
     1      (1,8,6)              -205.80566      WEL                                     
 ----------------------------------------------------------------------------------------




 DRN PACKAGE (DRN-0) FLOW RATES   PERIOD      2   STEP       79
 ----------------------------------------------------------------------------------------
   NUMBER   CELLID                    RATE       NAME                                    
 ----------------------------------------------------------------------------------------
     1      (1,1,1)               0.0000000      SURF                                    
     2      (1,1,2)               0.0000000      SURF                                    
     3      (1,1,3)               0.0000000      SURF                                    
     4      (1,1,4)               0.0000000      SURF                                    
     5      (1,1,5)               0.0000000      SURF                                    
     6      (1,1,6)               0.0000000      SURF                                    
     7      (1,1,7)               0.0000000      SURF                                    
     8      (1,1,8)               0.0000000      SURF                                    
     9      (1,1,9)               0.0000000      SURF                                    
     10     (1,1,10)              0.0000000      SURF                                    
     11     (1,2,1)               0.0000000      SURF                                    
     12     (1,2,2)               0.0000000      SURF                                    
     13     (1,2,3)               0.0000000      SURF                                    
     14     (1,2,4)               0.0000000      SURF                                    
     15     (1,2,5)               0.0000000      SURF                                    
     16     (1,2,6)               0.0000000      SURF                                    
     17     (1,2,7)               0.0000000      SURF                                    
     18     (1,2,8)               0.0000000      SURF                                    
     19     (1,2,9)               0.0000000      SURF                                    
     20     (1,2,10)              0.0000000      SURF                                    
     21     (1,3,1)               0.0000000      SURF                                    
     22     (1,3,2)               0.0000000      SURF                                    
     23     (1,3,3)               0.0000000      SURF                                    
     24     (1,3,4)               0.0000000      SURF                                    
     25     (1,3,5)               0.0000000      SURF                                    
     26     (1,3,6)               0.0000000      SURF                                    
     27     (1,3,7)               0.0000000      SURF                                    
     28     (1,3,8)               0.0000000      SURF                                    
     29     (1,3,9)               0.0000000      SURF                                    
     30     (1,3,10)              0.0000000      SURF                                    
     31     (1,4,1)               0.0000000      SURF                                    
     32     (1,4,2)               0.0000000      SURF                                    
     33     (1,4,3)               0.0000000      SURF                                    
     34     (1,4,4)               0.0000000      SURF                                    
     35     (1,4,5)               0.0000000      SURF                                    
     36     (1,4,6)               0.0000000      SURF                                    
     37     (1,4,7)               0.0000000      SURF                                    
     38     (1,4,8)               0.0000000      SURF                                    
     39     (1,4,9)               0.0000000      SURF                                    
     40     (1,4,10)              0.0000000      SURF                                    
     41     (1,5,1)               0.0000000      SURF                                    
     42     (1,5,2)               0.0000000      SURF                                    
     43     (1,5,3)               0.0000000      SURF                                    
     44     (1,5,4)               0.0000000      SURF                                    
     45     (1,5,5)               0.0000000      SURF                                    
     46     (1,5,6)               0.0000000      SURF                                    
     47     (1,5,7)               0.0000000      SURF                                    
     48     (1,5,8)               0.0000000      SURF                                    
     49     (1,5,9)               0.0000000      SURF                                    
     50     (1,5,10)              0.0000000      SURF                                    
     51     (1,6,1)               0.0000000      SURF                                    
     52     (1,6,2)               0.0000000      SURF                                    
     53     (1,6,3)               0.0000000      SURF                                    
     54     (1,6,4)               0.0000000      SURF                                    
     55     (1,6,5)               0.0000000      SURF                                    
     56     (1,6,6)               0.0000000      SURF                                    
     57     (1,6,7)              -3.15398211E-07 SURF                                    
     58     (1,6,8)               0.0000000      SURF                                    
     59     (1,6,9)               0.0000000      SURF                                    
     60     (1,6,10)              0.0000000      SURF                                    
     61     (1,7,1)               0.0000000      SURF                                    
     62     (1,7,2)               0.0000000      SURF                                    
     63     (1,7,3)               0.0000000      SURF                                    
     64     (1,7,4)               0.0000000      SURF                                    
     65     (1,7,5)               0.0000000      SURF                                    
     66     (1,7,6)               0.0000000      SURF                                    
     67     (1,7,7)               0.0000000      SURF                                    
     68     (1,7,8)               0.0000000      SURF                                    
     69     (1,7,9)               0.0000000      SURF                                    
     70     (1,7,10)              0.0000000      SURF                                    
     71     (1,8,1)               0.0000000      SURF                                    
     72     (1,8,2)               0.0000000      SURF                                    
     73     (1,8,3)               0.0000000      SURF                                    
     74     (1,8,4)               0.0000000      SURF                                    
     75     (1,8,5)               0.0000000      SURF                                    
     76     (1,8,6)               0.0000000      SURF                                    
     77     (1,8,7)               0.0000000      SURF                                    
     78     (1,8,8)               0.0000000      SURF                                    
     79     (1,8,9)               0.0000000      SURF                                    
     80     (1,8,10)              0.0000000      SURF                                    
     81     (1,9,1)               0.0000000      SURF                                    
     82     (1,9,2)               0.0000000      SURF                                    
     83     (1,9,3)               0.0000000      SURF                                    
     84     (1,9,4)               0.0000000      SURF                                    
     85     (1,9,5)               0.0000000      SURF                                    
     86     (1,9,6)               0.0000000      SURF                                    
     87     (1,9,7)               0.0000000      SURF                                    
     88     (1,9,8)               0.0000000      SURF                                    
     89     (1,9,9)               0.0000000      SURF                                    
     90     (1,9,10)              0.0000000      SURF                                    
     91     (1,10,1)              0.0000000      SURF                                    
     92     (1,10,2)              0.0000000      SURF                                    
     93     (1,10,3)              0.0000000      SURF                                    
     94     (1,10,4)              0.0000000      SURF                                    
     95     (1,10,5)              0.0000000      SURF                                    
     96     (1,10,6)              0.0000000      SURF                                    
     97     (1,10,7)              0.0000000      SURF                                    
     98     (1,10,8)              0.0000000      SURF                                    
     99     (1,10,9)              0.0000000      SURF                                    
    100     (1,10,10)             0.0000000      SURF                                    
    101     (1,11,1)              0.0000000      SURF                                    
    102     (1,11,2)              0.0000000      SURF                                    
    103     (1,11,3)              0.0000000      SURF                                    
    104     (1,11,4)              0.0000000      SURF                                    
    105     (1,11,5)              0.0000000      SURF                                    
    106     (1,11,6)              0.0000000      SURF                                    
    107     (1,11,7)              0.0000000      SURF                                    
    108     (1,11,8)              0.0000000      SURF                                    
    109     (1,11,9)              0.0000000      SURF                                    
    110     (1,11,10)             0.0000000      SURF                                    
    111     (1,12,1)              0.0000000      SURF                                    
    112     (1,12,2)              0.0000000      SURF                                    
    113     (1,12,3)              0.0000000      SURF                                    
    114     (1,12,4)              0.0000000      SURF                                    
    115     (1,12,5)              0.0000000      SURF                                    
    116     (1,12,6)              0.0000000      SURF                                    
    117     (1,12,7)              0.0000000      SURF                                    
    118     (1,12,8)              0.0000000      SURF                                    
    119     (1,12,9)              0.0000000      SURF                                    
    120     (1,12,10)             0.0000000      SURF                                    
    121     (1,13,1)              0.0000000      SURF                                    
    122     (1,13,2)              0.0000000      SURF                                    
    123     (1,13,3)              0.0000000      SURF                                    
    124     (1,13,4)              0.0000000      SURF                                    
    125     (1,13,5)              0.0000000      SURF                                    
    126     (1,13,6)              0.0000000      SURF                                    
    127     (1,13,7)              0.0000000      SURF                                    
    128     (1,13,8)              0.0000000      SURF                                    
    129     (1,13,9)              0.0000000      SURF                                    
    130     (1,13,10)             0.0000000      SURF                                    
    131     (1,14,1)              0.0000000      SURF                                    
    132     (1,14,2)              0.0000000      SURF                                    
    133     (1,14,3)              0.0000000      SURF                                    
    134     (1,14,4)              0.0000000      SURF                                    
    135     (1,14,5)              0.0000000      SURF                                    
    136     (1,14,6)              0.0000000      SURF                                    
    137     (1,14,7)              0.0000000      SURF                                    
    138     (1,14,8)              0.0000000      SURF                                    
    139     (1,14,9)              0.0000000      SURF                                    
    140     (1,14,10)             0.0000000      SURF                                    
    141     (1,15,1)              0.0000000      SURF                                    
    142     (1,15,2)              0.0000000      SURF                                    
    143     (1,15,3)              0.0000000      SURF                                    
    144     (1,15,4)              0.0000000      SURF                                    
    145     (1,15,5)              0.0000000      SURF                                    
    146     (1,15,6)              0.0000000      SURF                                    
    147     (1,15,7)              0.0000000      SURF                                    
    148     (1,15,8)              0.0000000      SURF                                    
    149     (1,15,9)              0.0000000      SURF                                    
    150     (1,15,10)             0.0000000      SURF                                    
 ----------------------------------------------------------------------------------------




 API PACKAGE (MAR) FLOW RATES   PERIOD      2   STEP       79
 -----------------------------------------------
   NUMBER   CELLID                    RATE      
 -----------------------------------------------
     1      (1,6,5)               35.769181     
     2      (1,6,6)               35.769181     
     3      (1,6,7)               35.769181     
     4      (1,10,5)              32.832706     
     5      (1,10,6)              32.832706     
     6      (1,10,7)              32.832706     
 -----------------------------------------------



1
  HEAD IN LAYER   1 AT END OF TIME STEP  79 IN STRESS PERIOD    2
  ---------------------------------------------------------------------------

            1           2           3           4           5           6           7           8           9          10
 ........................................................................................................................
   1   1.5476E-02  2.1647E-02  3.3322E-02  4.8141E-02  6.1174E-02  6.6474E-02  6.1873E-02  5.0022E-02  3.7458E-02  2.9789E-02
   2   2.1017E-02  3.0359E-02  4.8730E-02  7.3392E-02  9.6301E-02  0.1054      9.7209E-02  7.5865E-02  5.4288E-02  4.1633E-02
   3   2.9990E-02  4.5445E-02  7.7816E-02  0.1255      0.1744      0.1927      0.1756      0.1289      8.5607E-02  6.1920E-02
   4   3.6654E-02  5.9246E-02  0.1116      0.2017      0.3119      0.3461      0.3133      0.2056      0.1209      7.9863E-02
   5   3.0799E-02  5.4852E-02  0.1224      0.2766      0.5458      0.5892      0.5470      0.2797      0.1299      7.2464E-02
   6   2.5420E-03  8.0401E-03  4.6737E-02  0.2365      0.9997      0.9244       1.000      0.2370      4.7252E-02  8.6652E-03
   7  -4.2337E-02 -8.6492E-02 -0.2008     -0.4467     -0.9594      -2.161     -0.9601     -0.4497     -0.2106     -0.1147    
   8  -6.6583E-02 -0.1416     -0.3618     -0.9573      -2.713      -9.249      -2.714     -0.9623     -0.3773     -0.1859    
   9  -4.4490E-02 -8.9426E-02 -0.2065     -0.4609     -0.9944      -2.203     -0.9952     -0.4642     -0.2169     -0.1186    
  10  -1.2126E-03  2.8469E-03  3.6083E-02  0.2057      0.9018      0.8131      0.9019      0.2057      3.5617E-02  1.7887E-03
  11   2.6441E-02  4.9313E-02  0.1134      0.2585      0.5090      0.5468      0.5098      0.2610      0.1198      6.5010E-02
  12   3.2494E-02  5.4221E-02  0.1047      0.1912      0.2962      0.3285      0.2974      0.1945      0.1129      7.3016E-02
  13   2.6500E-02  4.1282E-02  7.2420E-02  0.1185      0.1656      0.1832      0.1666      0.1213      7.9261E-02  5.6212E-02
  14   1.8277E-02  2.7078E-02  4.4515E-02  6.8094E-02  9.0077E-02  9.8824E-02  9.0819E-02  7.0170E-02  4.9323E-02  3.7121E-02
  15   1.3215E-02  1.8921E-02  2.9801E-02  4.3733E-02  5.6055E-02  6.1052E-02  5.6620E-02  4.5287E-02  3.3318E-02  2.6038E-02

 HEAD WILL BE SAVED ON UNIT 1100 AT END OF TIME STEP   79, STRESS PERIOD    2


  VOLUME BUDGET FOR ENTIRE MODEL AT END OF TIME STEP   79, STRESS PERIOD   2
  ---------------------------------------------------------------------------------------------------

     CUMULATIVE VOLUME      L**3       RATES FOR THIS TIME STEP      L**3/T          PACKAGE NAME    
     ------------------                 ------------------------                     ----------------

           IN:                                      IN:
           ---                                      ---
              STO-SS =          24.6658                STO-SS =       8.6482E-03     STORAGE                          
              STO-SY =       60898.3666                STO-SY =          17.9702     STORAGE                          
                 WEL =           0.0000                   WEL =           0.0000     WEL-1                            
                 DRN =           0.0000                   DRN =           0.0000     DRN-0                            
                 API =      161595.9002                   API =         205.8057     MAR                              
                 CHD =       2.0279E-08                   CHD =           0.0000     CHD_0                            

            TOTAL IN =      222518.9326              TOTAL IN =         223.7845

          OUT:                                     OUT:
          ----                                     ----
              STO-SS =          21.1606                STO-SS =       9.0911E-03     STORAGE                          
              STO-SY =       41333.0652                STO-SY =          17.9697     STORAGE                          
                 WEL =      181164.7065                   WEL =         205.8057     WEL-1                            
                 DRN =       2.6341E-04                   DRN =       3.1540E-07     DRN-0                            
                 API =           0.0000                   API =           0.0000     MAR                              
                 CHD =       2.0705E-08                   CHD =           0.0000     CHD_0                            

           TOTAL OUT =      222518.9326             TOTAL OUT =         223.7845

            IN - OUT =      -1.0221E-06              IN - OUT =       7.8606E-10

 PERCENT DISCREPANCY =          -0.00     PERCENT DISCREPANCY =           0.00




         TIME SUMMARY AT END OF TIME STEP   79 IN STRESS PERIOD    2
                    SECONDS     MINUTES      HOURS       DAYS        YEARS
                    -----------------------------------------------------------
   TIME STEP LENGTH 8.64000E+05  14400.      240.00      10.000     2.73785E-02
 STRESS PERIOD TIME 6.82560E+07 1.13760E+06  18960.      790.00      2.1629    
         TOTAL TIME 6.83424E+07 1.13904E+06  18984.      791.00      2.1656    


end timestep


start timestep kper="2" kstp="80" mode="normal"

 UBDSV1 SAVING           STO-SS ON UNIT   1099 AT TIME STEP     80, STRESS PERIOD      2
 UBDSV1 SAVING           STO-SY ON UNIT   1099 AT TIME STEP     80, STRESS PERIOD      2
 UBDSV1 SAVING     FLOW-JA-FACE ON UNIT   1099 AT TIME STEP     80, STRESS PERIOD      2
 UBDSV06 SAVING       DATA-SPDIS IN MODEL GWF              PACKAGE NPF             CONNECTED TO MODEL GWF              PACKAGE NPF              ON UNIT   1099 AT TIME STEP     80, STRESS PERIOD      2
 UBDSV06 SAVING              WEL IN MODEL GWF              PACKAGE GWF             CONNECTED TO MODEL GWF              PACKAGE WEL-1            ON UNIT   1099 AT TIME STEP     80, STRESS PERIOD      2
 UBDSV06 SAVING              DRN IN MODEL GWF              PACKAGE GWF             CONNECTED TO MODEL GWF              PACKAGE DRN-0            ON UNIT   1099 AT TIME STEP     80, STRESS PERIOD      2
 UBDSV06 SAVING              API IN MODEL GWF              PACKAGE GWF             CONNECTED TO MODEL GWF              PACKAGE MAR              ON UNIT   1099 AT TIME STEP     80, STRESS PERIOD      2
 UBDSV06 SAVING              CHD IN MODEL GWF              PACKAGE GWF             CONNECTED TO MODEL GWF              PACKAGE CHD_0            ON UNIT   1099 AT TIME STEP     80, STRESS PERIOD      2

    CALCULATED INTERCELL FLOW FOR PERIOD 2 STEP 80
(1,1,1): (1,1,2) 6.310257E-02 (1,2,1) 5.602759E-02
(1,1,2): (1,1,1) -6.310257E-02 (1,1,3) 0.119328 (1,2,2) 8.796294E-02
(1,1,3): (1,1,2) -0.119328 (1,1,4) 0.151407 (1,2,3) 0.155565
(1,1,4): (1,1,3) -0.151407 (1,1,5) 0.133146 (1,2,4) 0.255311
(1,1,5): (1,1,4) -0.133146 (1,1,6) 5.422177E-02 (1,2,5) 0.355837
(1,1,6): (1,1,5) -5.422177E-02 (1,1,7) -4.682147E-02 (1,2,6) 0.395110
(1,1,7): (1,1,6) 4.682147E-02 (1,1,8) -0.120767 (1,2,7) 0.358012
(1,1,8): (1,1,7) 0.120767 (1,1,9) -0.128001 (1,2,8) 0.261430
(1,1,9): (1,1,8) 0.128001 (1,1,10) -7.809524E-02 (1,2,9) 0.170083
(1,1,10): (1,1,9) 7.809524E-02 (1,2,10) 0.119701
(1,2,1): (1,1,1) -5.602759E-02 (1,2,2) 9.504016E-02 (1,3,1) 9.013921E-02
(1,2,2): (1,1,2) -8.796294E-02 (1,2,1) -9.504016E-02 (1,2,3) 0.186951 (1,3,2) 0.151642
(1,2,3): (1,1,3) -0.155565 (1,2,2) -0.186951 (1,2,4) 0.251148 (1,3,3) 0.293238
(1,2,4): (1,1,4) -0.255311 (1,2,3) -0.251148 (1,2,5) 0.233553 (1,3,4) 0.528223
(1,2,5): (1,1,5) -0.355837 (1,2,4) -0.233553 (1,2,6) 9.337961E-02 (1,3,5) 0.795247
(1,2,6): (1,1,6) -0.395110 (1,2,5) -9.337961E-02 (1,2,7) -8.380776E-02 (1,3,6) 0.890660
(1,2,7): (1,1,7) -0.358012 (1,2,6) 8.380776E-02 (1,2,8) -0.217216 (1,3,7) 0.798509
(1,2,8): (1,1,8) -0.261430 (1,2,7) 0.217216 (1,2,9) -0.219311 (1,3,8) 0.537517
(1,2,9): (1,1,9) -0.170083 (1,2,8) 0.219311 (1,2,10) -0.128457 (1,3,9) 0.316001
(1,2,10): (1,1,10) -0.119701 (1,2,9) 0.128457 (1,3,10) 0.204202
(1,3,1): (1,2,1) -9.013921E-02 (1,3,2) 0.156546 (1,4,1) 6.528303E-02
(1,3,2): (1,2,2) -0.151642 (1,3,1) -0.156546 (1,3,3) 0.328596 (1,4,2) 0.136819
(1,3,3): (1,2,3) -0.293238 (1,3,2) -0.328596 (1,3,4) 0.486037 (1,4,3) 0.339296
(1,3,4): (1,2,4) -0.528223 (1,3,3) -0.486037 (1,3,5) 0.499822 (1,4,4) 0.774305
(1,3,5): (1,2,5) -0.795247 (1,3,4) -0.499822 (1,3,6) 0.188157 (1,4,5) 1.41580
(1,3,6): (1,2,6) -0.890660 (1,3,5) -0.188157 (1,3,7) -0.175333 (1,4,6) 1.58504
(1,3,7): (1,2,7) -0.798509 (1,3,6) 0.175333 (1,3,8) -0.477407 (1,4,7) 1.41770
(1,3,8): (1,2,8) -0.537517 (1,3,7) 0.477407 (1,3,9) -0.440618 (1,4,8) 0.779835
(1,3,9): (1,2,9) -0.316001 (1,3,8) 0.440618 (1,3,10) -0.240174 (1,4,9) 0.354237
(1,3,10): (1,2,10) -0.204202 (1,3,9) 0.240174 (1,4,10) 0.177989
(1,4,1): (1,3,1) -6.528303E-02 (1,4,2) 0.228146 (1,5,1) -6.301597E-02
(1,4,2): (1,3,2) -0.136819 (1,4,1) -0.228146 (1,4,3) 0.531452 (1,5,2) -4.942558E-02
(1,4,3): (1,3,3) -0.339296 (1,4,2) -0.531452 (1,4,4) 0.921658 (1,5,3) 0.102310
(1,4,4): (1,3,4) -0.774305 (1,4,3) -0.921658 (1,4,5) 1.13967 (1,5,4) 0.762694
(1,4,5): (1,3,5) -1.41580 (1,4,4) -1.13967 (1,4,6) 0.355508 (1,5,5) 2.46069
(1,4,6): (1,3,6) -1.58504 (1,4,5) -0.355508 (1,4,7) -0.340779 (1,5,6) 2.56805
(1,4,7): (1,3,7) -1.41770 (1,4,6) 0.340779 (1,4,8) -1.11347 (1,5,7) 2.45789
(1,4,8): (1,3,8) -0.779835 (1,4,7) 1.11347 (1,4,9) -0.866568 (1,5,8) 0.754461
(1,4,9): (1,3,9) -0.354237 (1,4,8) 0.866568 (1,4,10) -0.416528 (1,5,9) 8.338798E-02
(1,4,10): (1,3,10) -0.177989 (1,4,9) 0.416528 (1,5,10) -8.192172E-02
(1,5,1): (1,4,1) 6.301597E-02 (1,5,2) 0.241761 (1,6,1) -0.289789
(1,5,2): (1,4,2) 4.942558E-02 (1,5,1) -0.241761 (1,5,3) 0.684027 (1,6,2) -0.478442
(1,5,3): (1,4,3) -0.102310 (1,5,2) -0.684027 (1,5,4) 1.58719 (1,6,3) -0.775157
(1,5,4): (1,4,4) -0.762694 (1,5,3) -1.58719 (1,5,5) 2.84344 (1,6,4) -0.421858
(1,5,5): (1,4,5) -2.46069 (1,5,4) -2.84344 (1,5,6) 0.461044 (1,6,5) 4.98491
(1,5,6): (1,4,6) -2.56805 (1,5,5) -0.461044 (1,5,7) -0.449050 (1,6,6) 3.65574
(1,5,7): (1,4,7) -2.45789 (1,5,6) 0.449050 (1,5,8) -2.82242 (1,6,7) 4.97556
(1,5,8): (1,4,8) -0.754461 (1,5,7) 2.82242 (1,5,9) -1.54264 (1,6,8) -0.449634
(1,5,9): (1,4,9) -8.338798E-02 (1,5,8) 1.54264 (1,5,10) -0.582578 (1,6,9) -0.848470
(1,5,10): (1,4,10) 8.192172E-02 (1,5,9) 0.582578 (1,6,10) -0.653432
(1,6,1): (1,5,1) 0.289789 (1,6,2) 5.354807E-02 (1,7,1) -0.454882
(1,6,2): (1,5,2) 0.478442 (1,6,1) -5.354807E-02 (1,6,3) 0.387573 (1,7,2) -0.953468
(1,6,3): (1,5,3) 0.775157 (1,6,2) -0.387573 (1,6,4) 1.94451 (1,7,3) -2.49645
(1,6,4): (1,5,4) 0.421858 (1,6,3) -1.94451 (1,6,5) 8.40206 (1,7,4) -7.00520
(1,6,5): (1,5,5) -4.98491 (1,6,4) -8.40206 (1,6,6) -0.825191 (1,7,5) -21.5641
(1,6,6): (1,5,6) -3.65574 (1,6,5) 0.825191 (1,6,7) 0.828205 (1,7,6) -33.7159
(1,6,7): (1,5,7) -4.97556 (1,6,6) -0.828205 (1,6,8) -8.40014 (1,7,7) -21.5760
(1,6,8): (1,5,8) 0.449634 (1,6,7) 8.40014 (1,6,9) -1.94573 (1,7,8) -7.04224
(1,6,9): (1,5,9) 0.848470 (1,6,8) 1.94573 (1,6,10) -0.388036 (1,7,9) -2.60233
(1,6,10): (1,5,10) 0.653432 (1,6,9) 0.388036 (1,7,10) -1.24532
(1,7,1): (1,6,1) 0.454882 (1,7,2) -0.442535 (1,8,1) -0.243938
(1,7,2): (1,6,2) 0.953468 (1,7,1) 0.442535 (1,7,3) -1.13639 (1,8,2) -0.549634
(1,7,3): (1,6,3) 2.49645 (1,7,2) 1.13639 (1,7,4) -2.40920 (1,8,3) -1.58243
(1,7,4): (1,6,4) 7.00520 (1,7,3) 2.40920 (1,7,5) -4.89232 (1,8,4) -4.88373
(1,7,5): (1,6,5) 21.5641 (1,7,4) 4.89232 (1,7,6) -10.8544 (1,8,5) -15.8551
(1,7,6): (1,6,6) 33.7159 (1,7,5) 10.8544 (1,7,7) 10.8466 (1,8,6) -55.5556
(1,7,7): (1,6,7) 21.5760 (1,7,6) -10.8466 (1,7,8) 4.86816 (1,8,7) -15.8603
(1,7,8): (1,6,8) 7.04224 (1,7,7) -4.86816 (1,7,9) 2.33768 (1,8,8) -4.90199
(1,7,9): (1,6,9) 2.60233 (1,7,8) -2.33768 (1,7,10) 0.948520 (1,8,9) -1.63695
(1,7,10): (1,6,10) 1.24532 (1,7,9) -0.948520 (1,8,10) -0.707831
(1,8,1): (1,7,1) 0.243938 (1,8,2) -0.748848 (1,9,1) 0.222309
(1,8,2): (1,7,2) 0.549634 (1,8,1) 0.748848 (1,8,3) -2.17546 (1,9,2) 0.519691
(1,8,3): (1,7,3) 1.58243 (1,8,2) 2.17546 (1,8,4) -5.74002 (1,9,3) 1.52327
(1,8,4): (1,7,4) 4.88373 (1,8,3) 5.74002 (1,8,5) -15.8648 (1,9,4) 4.73272
(1,8,5): (1,7,5) 15.8551 (1,8,4) 15.8648 (1,8,6) -47.6044 (1,9,5) 15.4613
(1,8,6): (1,7,6) 55.5556 (1,8,5) 47.6044 (1,8,7) 47.5839 (1,9,6) 54.8953
(1,8,7): (1,7,7) 15.8603 (1,8,6) -47.5839 (1,8,8) 15.8220 (1,9,7) 15.4650
(1,8,8): (1,7,8) 4.90199 (1,8,7) -15.8220 (1,8,9) 5.62750 (1,9,8) 4.74778
(1,8,9): (1,7,9) 1.63695 (1,8,8) -5.62750 (1,8,10) 1.87997 (1,9,9) 1.57205
(1,8,10): (1,7,10) 0.707831 (1,8,9) -1.87997 (1,9,10) 0.668174
(1,9,1): (1,8,1) -0.222309 (1,9,2) -0.450775 (1,10,1) 0.438584
(1,9,2): (1,8,2) -0.519691 (1,9,1) 0.450775 (1,9,3) -1.16517 (1,10,2) 0.929920
(1,9,3): (1,8,3) -1.52327 (1,9,2) 1.16517 (1,9,4) -2.49669 (1,10,3) 2.44191
(1,9,4): (1,8,4) -4.73272 (1,9,3) 2.49669 (1,9,5) -5.09040 (1,10,4) 6.80826
(1,9,5): (1,8,5) -15.4613 (1,9,4) 5.09040 (1,9,6) -10.8803 (1,10,5) 20.6614
(1,9,6): (1,8,6) -54.8953 (1,9,5) 10.8803 (1,9,7) 10.8711 (1,10,6) 32.5953
(1,9,7): (1,8,7) -15.4650 (1,9,6) -10.8711 (1,9,8) 5.06434 (1,10,7) 20.6720
(1,9,8): (1,8,8) -4.74778 (1,9,7) -5.06434 (1,9,9) 2.42245 (1,10,8) 6.84286
(1,9,9): (1,8,9) -1.57205 (1,9,8) -2.42245 (1,9,10) 0.973220 (1,10,9) 2.54340
(1,9,10): (1,8,10) -0.668174 (1,9,9) -0.973220 (1,10,10) 1.21422
(1,10,1): (1,9,1) -0.438584 (1,10,2) 3.823309E-02 (1,11,1) 0.283647
(1,10,2): (1,9,2) -0.929920 (1,10,1) -3.823309E-02 (1,10,3) 0.328984 (1,11,2) 0.475049
(1,10,3): (1,9,3) -2.44191 (1,10,2) -0.328984 (1,10,4) 1.72344 (1,11,3) 0.792928
(1,10,4): (1,9,4) -6.80826 (1,10,3) -1.72344 (1,10,5) 7.57210 (1,11,4) 0.557229
(1,10,5): (1,9,5) -20.6614 (1,10,4) -7.57210 (1,10,6) -0.969424 (1,11,5) -4.25570
(1,10,6): (1,9,6) -32.5953 (1,10,5) 0.969424 (1,10,7) 0.970117 (1,11,6) -2.85216
(1,10,7): (1,9,7) -20.6720 (1,10,6) -0.970117 (1,10,8) -7.57337 (1,11,7) -4.24690
(1,10,8): (1,9,8) -6.84286 (1,10,7) 7.57337 (1,10,9) -1.72930 (1,11,8) 0.583885
(1,10,9): (1,9,9) -2.54340 (1,10,8) 1.72930 (1,10,10) -0.336615 (1,11,9) 0.864317
(1,10,10): (1,9,10) -1.21422 (1,10,9) 0.336615 (1,11,10) 0.647573
(1,11,1): (1,10,1) -0.283647 (1,11,2) 0.229171 (1,12,1) 6.499266E-02
(1,11,2): (1,10,2) -0.475049 (1,11,1) -0.229171 (1,11,3) 0.646411 (1,12,2) 5.496711E-02
(1,11,3): (1,10,3) -0.792928 (1,11,2) -0.646411 (1,11,4) 1.48556 (1,12,3) -7.970191E-02
(1,11,4): (1,10,4) -0.557229 (1,11,3) -1.48556 (1,11,5) 2.62677 (1,12,4) -0.678087
(1,11,5): (1,10,5) 4.25570 (1,11,4) -2.62677 (1,11,6) 0.397353 (1,12,5) -2.21850
(1,11,6): (1,10,6) 2.85216 (1,11,5) -0.397353 (1,11,7) -0.388146 (1,12,6) -2.28315
(1,11,7): (1,10,7) 4.24690 (1,11,6) 0.388146 (1,11,8) -2.60952 (1,12,7) -2.21560
(1,11,8): (1,10,8) -0.583885 (1,11,7) 2.60952 (1,11,9) -1.44648 (1,12,8) -0.669673
(1,11,9): (1,10,9) -0.864317 (1,11,8) 1.44648 (1,11,10) -0.552710 (1,12,9) -6.044490E-02
(1,11,10): (1,10,10) -0.647573 (1,11,9) 0.552710 (1,12,10) 8.844574E-02
(1,12,1): (1,11,1) -6.499266E-02 (1,12,2) 0.219129 (1,13,1) -5.862823E-02
(1,12,2): (1,11,2) -5.496711E-02 (1,12,1) -0.219129 (1,12,3) 0.511024 (1,13,2) -0.127969
(1,12,3): (1,11,3) 7.970191E-02 (1,12,2) -0.511024 (1,12,4) 0.882592 (1,13,3) -0.322805
(1,12,4): (1,11,4) 0.678087 (1,12,3) -0.882592 (1,12,5) 1.08072 (1,13,4) -0.736517
(1,12,5): (1,11,5) 2.21850 (1,12,4) -1.08072 (1,12,6) 0.333662 (1,13,5) -1.33820
(1,12,6): (1,11,6) 2.28315 (1,12,5) -0.333662 (1,12,7) -0.321609 (1,13,6) -1.49337
(1,12,7): (1,11,7) 2.21560 (1,12,6) 0.321609 (1,12,8) -1.05814 (1,13,7) -1.33965
(1,12,8): (1,11,8) 0.669673 (1,12,7) 1.05814 (1,12,9) -0.832759 (1,13,8) -0.741047
(1,12,9): (1,11,9) 6.044490E-02 (1,12,8) 0.832759 (1,12,10) -0.403179 (1,13,9) -0.335996
(1,12,10): (1,11,10) -8.844574E-02 (1,12,9) 0.403179 (1,13,10) -0.166308
(1,13,1): (1,12,1) 5.862823E-02 (1,13,2) 0.149726 (1,14,1) -8.268363E-02
(1,13,2): (1,12,2) 0.127969 (1,13,1) -0.149726 (1,13,3) 0.315830 (1,14,2) -0.142794
(1,13,3): (1,12,3) 0.322805 (1,13,2) -0.315830 (1,13,4) 0.468302 (1,14,3) -0.281067
(1,13,4): (1,12,4) 0.736517 (1,13,3) -0.468302 (1,13,5) 0.480474 (1,14,4) -0.509413
(1,13,5): (1,12,5) 1.33820 (1,13,4) -0.480474 (1,13,6) 0.180140 (1,14,5) -0.766700
(1,13,6): (1,12,6) 1.49337 (1,13,5) -0.180140 (1,13,7) -0.169540 (1,14,6) -0.858201
(1,13,7): (1,12,7) 1.33965 (1,13,6) 0.169540 (1,13,8) -0.461100 (1,14,7) -0.769459
(1,13,8): (1,12,8) 0.741047 (1,13,7) 0.461100 (1,13,9) -0.427353 (1,14,8) -0.517557
(1,13,9): (1,12,9) 0.335996 (1,13,8) 0.427353 (1,13,10) -0.233380 (1,14,9) -0.301791
(1,13,10): (1,12,10) 0.166308 (1,13,9) 0.233380 (1,14,10) -0.192182
(1,14,1): (1,13,1) 8.268363E-02 (1,14,2) 8.961193E-02 (1,15,1) -5.128106E-02
(1,14,2): (1,13,2) 0.142794 (1,14,1) -8.961193E-02 (1,14,3) 0.177510 (1,15,2) -8.244224E-02
(1,14,3): (1,13,3) 0.281067 (1,14,2) -0.177510 (1,14,4) 0.240047 (1,15,3) -0.148573
(1,14,4): (1,13,4) 0.509413 (1,14,3) -0.240047 (1,14,5) 0.223893 (1,15,4) -0.246172
(1,14,5): (1,13,5) 0.766700 (1,14,4) -0.223893 (1,14,6) 8.922892E-02 (1,15,5) -0.344250
(1,14,6): (1,13,6) 0.858201 (1,14,5) -8.922892E-02 (1,14,7) -8.137889E-02 (1,15,6) -0.382470
(1,14,7): (1,13,7) 0.769459 (1,14,6) 8.137889E-02 (1,14,8) -0.209942 (1,15,7) -0.346109
(1,14,8): (1,13,8) 0.517557 (1,14,7) 0.209942 (1,14,9) -0.211775 (1,15,8) -0.251562
(1,14,9): (1,13,9) 0.301791 (1,14,8) 0.211775 (1,14,10) -0.123845 (1,15,9) -0.161780
(1,14,10): (1,13,10) 0.192182 (1,14,9) 0.123845 (1,15,10) -0.112138
(1,15,1): (1,14,1) 5.128106E-02 (1,15,2) 5.844853E-02
(1,15,2): (1,14,2) 8.244224E-02 (1,15,1) -5.844853E-02 (1,15,3) 0.111360
(1,15,3): (1,14,3) 0.148573 (1,15,2) -0.111360 (1,15,4) 0.142454
(1,15,4): (1,14,4) 0.246172 (1,15,3) -0.142454 (1,15,5) 0.125930
(1,15,5): (1,14,5) 0.344250 (1,15,4) -0.125930 (1,15,6) 5.111792E-02
(1,15,6): (1,14,6) 0.382470 (1,15,5) -5.111792E-02 (1,15,7) -4.512487E-02
(1,15,7): (1,14,7) 0.346109 (1,15,6) 4.512487E-02 (1,15,8) -0.115520
(1,15,8): (1,14,8) 0.251562 (1,15,7) 0.115520 (1,15,9) -0.122028
(1,15,9): (1,14,9) 0.161780 (1,15,8) 0.122028 (1,15,10) -7.422156E-02
(1,15,10): (1,14,10) 0.112138 (1,15,9) 7.422156E-02

 WEL PACKAGE (WEL-1) FLOW RATES   PERIOD      2   STEP       80
 ----------------------------------------------------------------------------------------
   NUMBER   CELLID                    RATE       NAME                                    
 ----------------------------------------------------------------------------------------
     1      (1,8,6)              -205.70339      WEL                                     
 ----------------------------------------------------------------------------------------




 DRN PACKAGE (DRN-0) FLOW RATES   PERIOD      2   STEP       80
 ----------------------------------------------------------------------------------------
   NUMBER   CELLID                    RATE       NAME                                    
 ----------------------------------------------------------------------------------------
     1      (1,1,1)               0.0000000      SURF                                    
     2      (1,1,2)               0.0000000      SURF                                    
     3      (1,1,3)               0.0000000      SURF                                    
     4      (1,1,4)               0.0000000      SURF                                    
     5      (1,1,5)               0.0000000      SURF                                    
     6      (1,1,6)               0.0000000      SURF                                    
     7      (1,1,7)               0.0000000      SURF                                    
     8      (1,1,8)               0.0000000      SURF                                    
     9      (1,1,9)               0.0000000      SURF                                    
     10     (1,1,10)              0.0000000      SURF                                    
     11     (1,2,1)               0.0000000      SURF                                    
     12     (1,2,2)               0.0000000      SURF                                    
     13     (1,2,3)               0.0000000      SURF                                    
     14     (1,2,4)               0.0000000      SURF                                    
     15     (1,2,5)               0.0000000      SURF                                    
     16     (1,2,6)               0.0000000      SURF                                    
     17     (1,2,7)               0.0000000      SURF                                    
     18     (1,2,8)               0.0000000      SURF                                    
     19     (1,2,9)               0.0000000      SURF                                    
     20     (1,2,10)              0.0000000      SURF                                    
     21     (1,3,1)               0.0000000      SURF                                    
     22     (1,3,2)               0.0000000      SURF                                    
     23     (1,3,3)               0.0000000      SURF                                    
     24     (1,3,4)               0.0000000      SURF                                    
     25     (1,3,5)               0.0000000      SURF                                    
     26     (1,3,6)               0.0000000      SURF                                    
     27     (1,3,7)               0.0000000      SURF                                    
     28     (1,3,8)               0.0000000      SURF                                    
     29     (1,3,9)               0.0000000      SURF                                    
     30     (1,3,10)              0.0000000      SURF                                    
     31     (1,4,1)               0.0000000      SURF                                    
     32     (1,4,2)               0.0000000      SURF                                    
     33     (1,4,3)               0.0000000      SURF                                    
     34     (1,4,4)               0.0000000      SURF                                    
     35     (1,4,5)               0.0000000      SURF                                    
     36     (1,4,6)               0.0000000      SURF                                    
     37     (1,4,7)               0.0000000      SURF                                    
     38     (1,4,8)               0.0000000      SURF                                    
     39     (1,4,9)               0.0000000      SURF                                    
     40     (1,4,10)              0.0000000      SURF                                    
     41     (1,5,1)               0.0000000      SURF                                    
     42     (1,5,2)               0.0000000      SURF                                    
     43     (1,5,3)               0.0000000      SURF                                    
     44     (1,5,4)               0.0000000      SURF                                    
     45     (1,5,5)               0.0000000      SURF                                    
     46     (1,5,6)               0.0000000      SURF                                    
     47     (1,5,7)               0.0000000      SURF                                    
     48     (1,5,8)               0.0000000      SURF                                    
     49     (1,5,9)               0.0000000      SURF                                    
     50     (1,5,10)              0.0000000      SURF                                    
     51     (1,6,1)               0.0000000      SURF                                    
     52     (1,6,2)               0.0000000      SURF                                    
     53     (1,6,3)               0.0000000      SURF                                    
     54     (1,6,4)               0.0000000      SURF                                    
     55     (1,6,5)               0.0000000      SURF                                    
     56     (1,6,6)               0.0000000      SURF                                    
     57     (1,6,7)              -3.14685167E-07 SURF                                    
     58     (1,6,8)               0.0000000      SURF                                    
     59     (1,6,9)               0.0000000      SURF                                    
     60     (1,6,10)              0.0000000      SURF                                    
     61     (1,7,1)               0.0000000      SURF                                    
     62     (1,7,2)               0.0000000      SURF                                    
     63     (1,7,3)               0.0000000      SURF                                    
     64     (1,7,4)               0.0000000      SURF                                    
     65     (1,7,5)               0.0000000      SURF                                    
     66     (1,7,6)               0.0000000      SURF                                    
     67     (1,7,7)               0.0000000      SURF                                    
     68     (1,7,8)               0.0000000      SURF                                    
     69     (1,7,9)               0.0000000      SURF                                    
     70     (1,7,10)              0.0000000      SURF                                    
     71     (1,8,1)               0.0000000      SURF                                    
     72     (1,8,2)               0.0000000      SURF                                    
     73     (1,8,3)               0.0000000      SURF                                    
     74     (1,8,4)               0.0000000      SURF                                    
     75     (1,8,5)               0.0000000      SURF                                    
     76     (1,8,6)               0.0000000      SURF                                    
     77     (1,8,7)               0.0000000      SURF                                    
     78     (1,8,8)               0.0000000      SURF                                    
     79     (1,8,9)               0.0000000      SURF                                    
     80     (1,8,10)              0.0000000      SURF                                    
     81     (1,9,1)               0.0000000      SURF                                    
     82     (1,9,2)               0.0000000      SURF                                    
     83     (1,9,3)               0.0000000      SURF                                    
     84     (1,9,4)               0.0000000      SURF                                    
     85     (1,9,5)               0.0000000      SURF                                    
     86     (1,9,6)               0.0000000      SURF                                    
     87     (1,9,7)               0.0000000      SURF                                    
     88     (1,9,8)               0.0000000      SURF                                    
     89     (1,9,9)               0.0000000      SURF                                    
     90     (1,9,10)              0.0000000      SURF                                    
     91     (1,10,1)              0.0000000      SURF                                    
     92     (1,10,2)              0.0000000      SURF                                    
     93     (1,10,3)              0.0000000      SURF                                    
     94     (1,10,4)              0.0000000      SURF                                    
     95     (1,10,5)              0.0000000      SURF                                    
     96     (1,10,6)              0.0000000      SURF                                    
     97     (1,10,7)              0.0000000      SURF                                    
     98     (1,10,8)              0.0000000      SURF                                    
     99     (1,10,9)              0.0000000      SURF                                    
    100     (1,10,10)             0.0000000      SURF                                    
    101     (1,11,1)              0.0000000      SURF                                    
    102     (1,11,2)              0.0000000      SURF                                    
    103     (1,11,3)              0.0000000      SURF                                    
    104     (1,11,4)              0.0000000      SURF                                    
    105     (1,11,5)              0.0000000      SURF                                    
    106     (1,11,6)              0.0000000      SURF                                    
    107     (1,11,7)              0.0000000      SURF                                    
    108     (1,11,8)              0.0000000      SURF                                    
    109     (1,11,9)              0.0000000      SURF                                    
    110     (1,11,10)             0.0000000      SURF                                    
    111     (1,12,1)              0.0000000      SURF                                    
    112     (1,12,2)              0.0000000      SURF                                    
    113     (1,12,3)              0.0000000      SURF                                    
    114     (1,12,4)              0.0000000      SURF                                    
    115     (1,12,5)              0.0000000      SURF                                    
    116     (1,12,6)              0.0000000      SURF                                    
    117     (1,12,7)              0.0000000      SURF                                    
    118     (1,12,8)              0.0000000      SURF                                    
    119     (1,12,9)              0.0000000      SURF                                    
    120     (1,12,10)             0.0000000      SURF                                    
    121     (1,13,1)              0.0000000      SURF                                    
    122     (1,13,2)              0.0000000      SURF                                    
    123     (1,13,3)              0.0000000      SURF                                    
    124     (1,13,4)              0.0000000      SURF                                    
    125     (1,13,5)              0.0000000      SURF                                    
    126     (1,13,6)              0.0000000      SURF                                    
    127     (1,13,7)              0.0000000      SURF                                    
    128     (1,13,8)              0.0000000      SURF                                    
    129     (1,13,9)              0.0000000      SURF                                    
    130     (1,13,10)             0.0000000      SURF                                    
    131     (1,14,1)              0.0000000      SURF                                    
    132     (1,14,2)              0.0000000      SURF                                    
    133     (1,14,3)              0.0000000      SURF                                    
    134     (1,14,4)              0.0000000      SURF                                    
    135     (1,14,5)              0.0000000      SURF                                    
    136     (1,14,6)              0.0000000      SURF                                    
    137     (1,14,7)              0.0000000      SURF                                    
    138     (1,14,8)              0.0000000      SURF                                    
    139     (1,14,9)              0.0000000      SURF                                    
    140     (1,14,10)             0.0000000      SURF                                    
    141     (1,15,1)              0.0000000      SURF                                    
    142     (1,15,2)              0.0000000      SURF                                    
    143     (1,15,3)              0.0000000      SURF                                    
    144     (1,15,4)              0.0000000      SURF                                    
    145     (1,15,5)              0.0000000      SURF                                    
    146     (1,15,6)              0.0000000      SURF                                    
    147     (1,15,7)              0.0000000      SURF                                    
    148     (1,15,8)              0.0000000      SURF                                    
    149     (1,15,9)              0.0000000      SURF                                    
    150     (1,15,10)             0.0000000      SURF                                    
 ----------------------------------------------------------------------------------------




 API PACKAGE (MAR) FLOW RATES   PERIOD      2   STEP       80
 -----------------------------------------------
   NUMBER   CELLID                    RATE      
 -----------------------------------------------
     1      (1,6,5)               35.779898     
     2      (1,6,6)               35.779898     
     3      (1,6,7)               35.779898     
     4      (1,10,5)              32.787899     
     5      (1,10,6)              32.787899     
     6      (1,10,7)              32.787899     
 -----------------------------------------------



1
  HEAD IN LAYER   1 AT END OF TIME STEP  80 IN STRESS PERIOD    2
  ---------------------------------------------------------------------------

            1           2           3           4           5           6           7           8           9          10
 ........................................................................................................................
   1   1.6071E-02  2.2368E-02  3.4260E-02  4.9326E-02  6.2558E-02  6.7943E-02  6.3293E-02  5.1292E-02  3.8557E-02  3.0778E-02
   2   2.1662E-02  3.1136E-02  4.9739E-02  7.4668E-02  9.7797E-02  0.1070      9.8744E-02  7.7235E-02  5.5472E-02  4.2697E-02
   3   3.0648E-02  4.6231E-02  7.8833E-02  0.1268      0.1759      0.1944      0.1772      0.1303      8.6800E-02  6.2989E-02
   4   3.7152E-02  5.9831E-02  0.1124      0.2027      0.3132      0.3476      0.3146      0.2067      0.1218      8.0646E-02
   5   3.0874E-02  5.4918E-02  0.1225      0.2769      0.5465      0.5901      0.5477      0.2801      0.1300      7.2519E-02
   6   1.9845E-03  7.3354E-03  4.5916E-02  0.2359      0.9997      0.9247       1.000      0.2364      4.6271E-02  7.6464E-03
   7  -4.3495E-02 -8.7941E-02 -0.2026     -0.4485     -0.9607      -2.161     -0.9615     -0.4516     -0.2128     -0.1168    
   8  -6.7995E-02 -0.1434     -0.3641     -0.9598      -2.715      -9.249      -2.716     -0.9650     -0.3800     -0.1884    
   9  -4.5662E-02 -9.0946E-02 -0.2085     -0.4635     -0.9973      -2.206     -0.9982     -0.4670     -0.2193     -0.1208    
  10  -1.7959E-03  2.0267E-03  3.4811E-02  0.2037      0.8985      0.8095      0.8986      0.2037      3.4186E-02  6.3909E-04
  11   2.6494E-02  4.9299E-02  0.1132      0.2580      0.5080      0.5457      0.5089      0.2606      0.1196      6.4978E-02
  12   3.2972E-02  5.4765E-02  0.1053      0.1919      0.2969      0.3292      0.2981      0.1953      0.1136      7.3758E-02
  13   2.7128E-02  4.2038E-02  7.3391E-02  0.1197      0.1669      0.1846      0.1680      0.1226      8.0401E-02  5.7249E-02
  14   1.8882E-02  2.7819E-02  4.5489E-02  6.9329E-02  9.1515E-02  0.1003      9.2292E-02  7.1490E-02  5.0463E-02  3.8140E-02
  15   1.3764E-02  1.9597E-02  3.0699E-02  4.4881E-02  5.7402E-02  6.2482E-02  5.7998E-02  4.6512E-02  3.4366E-02  2.6969E-02

 HEAD WILL BE SAVED ON UNIT 1100 AT END OF TIME STEP   80, STRESS PERIOD    2


  VOLUME BUDGET FOR ENTIRE MODEL AT END OF TIME STEP   80, STRESS PERIOD   2
  ---------------------------------------------------------------------------------------------------

     CUMULATIVE VOLUME      L**3       RATES FOR THIS TIME STEP      L**3/T          PACKAGE NAME    
     ------------------                 ------------------------                     ----------------

           IN:                                      IN:
           ---                                      ---
              STO-SS =          24.7513                STO-SS =       8.5525E-03     STORAGE                          
              STO-SY =       61076.0011                STO-SY =          17.7635     STORAGE                          
                 WEL =           0.0000                   WEL =           0.0000     WEL-1                            
                 DRN =           0.0000                   DRN =           0.0000     DRN-0                            
                 API =      163652.9341                   API =         205.7034     MAR                              
                 CHD =       2.0279E-08                   CHD =           0.0000     CHD_0                            

            TOTAL IN =      224753.6866              TOTAL IN =         223.4754

          OUT:                                     OUT:
          ----                                     ----
              STO-SS =          21.2505                STO-SS =       8.9866E-03     STORAGE                          
              STO-SY =       41510.6954                STO-SY =          17.7630     STORAGE                          
                 WEL =      183221.7404                   WEL =         205.7034     WEL-1                            
                 DRN =       2.6656E-04                   DRN =       3.1469E-07     DRN-0                            
                 API =           0.0000                   API =           0.0000     MAR                              
                 CHD =       2.0705E-08                   CHD =           0.0000     CHD_0                            

           TOTAL OUT =      224753.6866             TOTAL OUT =         223.4754

            IN - OUT =      -1.0145E-06              IN - OUT =       7.6588E-10

 PERCENT DISCREPANCY =          -0.00     PERCENT DISCREPANCY =           0.00




         TIME SUMMARY AT END OF TIME STEP   80 IN STRESS PERIOD    2
                    SECONDS     MINUTES      HOURS       DAYS        YEARS
                    -----------------------------------------------------------
   TIME STEP LENGTH 8.64000E+05  14400.      240.00      10.000     2.73785E-02
 STRESS PERIOD TIME 6.91200E+07 1.15200E+06  19200.      800.00      2.1903    
         TOTAL TIME 6.92064E+07 1.15344E+06  19224.      801.00      2.1930    


end timestep


start timestep kper="2" kstp="81" mode="normal"

 UBDSV1 SAVING           STO-SS ON UNIT   1099 AT TIME STEP     81, STRESS PERIOD      2
 UBDSV1 SAVING           STO-SY ON UNIT   1099 AT TIME STEP     81, STRESS PERIOD      2
 UBDSV1 SAVING     FLOW-JA-FACE ON UNIT   1099 AT TIME STEP     81, STRESS PERIOD      2
 UBDSV06 SAVING       DATA-SPDIS IN MODEL GWF              PACKAGE NPF             CONNECTED TO MODEL GWF              PACKAGE NPF              ON UNIT   1099 AT TIME STEP     81, STRESS PERIOD      2
 UBDSV06 SAVING              WEL IN MODEL GWF              PACKAGE GWF             CONNECTED TO MODEL GWF              PACKAGE WEL-1            ON UNIT   1099 AT TIME STEP     81, STRESS PERIOD      2
 UBDSV06 SAVING              DRN IN MODEL GWF              PACKAGE GWF             CONNECTED TO MODEL GWF              PACKAGE DRN-0            ON UNIT   1099 AT TIME STEP     81, STRESS PERIOD      2
 UBDSV06 SAVING              API IN MODEL GWF              PACKAGE GWF             CONNECTED TO MODEL GWF              PACKAGE MAR              ON UNIT   1099 AT TIME STEP     81, STRESS PERIOD      2
 UBDSV06 SAVING              CHD IN MODEL GWF              PACKAGE GWF             CONNECTED TO MODEL GWF              PACKAGE CHD_0            ON UNIT   1099 AT TIME STEP     81, STRESS PERIOD      2

    CALCULATED INTERCELL FLOW FOR PERIOD 2 STEP 81
(1,1,1): (1,1,2) 6.434918E-02 (1,2,1) 5.649302E-02
(1,1,2): (1,1,1) -6.434918E-02 (1,1,3) 0.121494 (1,2,2) 8.849286E-02
(1,1,3): (1,1,2) -0.121494 (1,1,4) 0.153877 (1,2,3) 0.156233
(1,1,4): (1,1,3) -0.153877 (1,1,5) 0.135147 (1,2,4) 0.256185
(1,1,5): (1,1,4) -0.135147 (1,1,6) 5.508683E-02 (1,2,5) 0.356926
(1,1,6): (1,1,5) -5.508683E-02 (1,1,7) -4.731660E-02 (1,2,6) 0.396303
(1,1,7): (1,1,6) 4.731660E-02 (1,1,8) -0.122256 (1,2,7) 0.359135
(1,1,8): (1,1,7) 0.122256 (1,1,9) -0.129703 (1,2,8) 0.262379
(1,1,9): (1,1,8) 0.129703 (1,1,10) -7.919645E-02 (1,2,9) 0.170872
(1,1,10): (1,1,9) 7.919645E-02 (1,2,10) 0.120406
(1,2,1): (1,1,1) -5.649302E-02 (1,2,2) 9.635151E-02 (1,3,1) 9.020369E-02
(1,2,2): (1,1,2) -8.849286E-02 (1,2,1) -9.635151E-02 (1,2,3) 0.189256 (1,3,2) 0.151659
(1,2,3): (1,1,3) -0.156233 (1,2,2) -0.189256 (1,2,4) 0.253827 (1,3,3) 0.293260
(1,2,4): (1,1,4) -0.256185 (1,2,3) -0.253827 (1,2,5) 0.235768 (1,3,4) 0.528415
(1,2,5): (1,1,5) -0.356926 (1,2,4) -0.235768 (1,2,6) 9.434881E-02 (1,3,5) 0.795735
(1,2,6): (1,1,6) -0.396303 (1,2,5) -9.434881E-02 (1,2,7) -8.437216E-02 (1,3,6) 0.891311
(1,2,7): (1,1,7) -0.359135 (1,2,6) 8.437216E-02 (1,2,8) -0.218880 (1,3,7) 0.799016
(1,2,8): (1,1,8) -0.262379 (1,2,7) 0.218880 (1,2,9) -0.221173 (1,3,8) 0.537733
(1,2,9): (1,1,9) -0.170872 (1,2,8) 0.221173 (1,2,10) -0.129642 (1,3,9) 0.316025
(1,2,10): (1,1,10) -0.120406 (1,2,9) 0.129642 (1,3,10) 0.204167
(1,3,1): (1,2,1) -9.020369E-02 (1,3,2) 0.157811 (1,4,1) 6.362371E-02
(1,3,2): (1,2,2) -0.151659 (1,3,1) -0.157811 (1,3,3) 0.330909 (1,4,2) 0.134751
(1,3,3): (1,2,3) -0.293260 (1,3,2) -0.330909 (1,3,4) 0.488892 (1,4,3) 0.336737
(1,3,4): (1,2,4) -0.528415 (1,3,3) -0.488892 (1,3,5) 0.502339 (1,4,4) 0.771618
(1,3,5): (1,2,5) -0.795735 (1,3,4) -0.502339 (1,3,6) 0.189288 (1,4,5) 1.41344
(1,3,6): (1,2,6) -0.891311 (1,3,5) -0.189288 (1,3,7) -0.176041 (1,4,6) 1.58291
(1,3,7): (1,2,7) -0.799016 (1,3,6) 0.176041 (1,3,8) -0.479364 (1,4,7) 1.41527
(1,3,8): (1,2,8) -0.537733 (1,3,7) 0.479364 (1,3,9) -0.442676 (1,4,8) 0.776930
(1,3,9): (1,2,9) -0.316025 (1,3,8) 0.442676 (1,3,10) -0.241419 (1,4,9) 0.351196
(1,3,10): (1,2,10) -0.204167 (1,3,9) 0.241419 (1,4,10) 0.175037
(1,4,1): (1,3,1) -6.362371E-02 (1,4,2) 0.229004 (1,5,1) -6.729205E-02
(1,4,2): (1,3,2) -0.134751 (1,4,1) -0.229004 (1,4,3) 0.533282 (1,5,2) -5.462497E-02
(1,4,3): (1,3,3) -0.336737 (1,4,2) -0.533282 (1,4,4) 0.924407 (1,5,3) 9.594049E-02
(1,4,4): (1,3,4) -0.771618 (1,4,3) -0.924407 (1,4,5) 1.14255 (1,5,4) 0.755918
(1,4,5): (1,3,5) -1.41344 (1,4,4) -1.14255 (1,4,6) 0.356871 (1,5,5) 2.45468
(1,4,6): (1,3,6) -1.58291 (1,4,5) -0.356871 (1,4,7) -0.341794 (1,5,6) 2.56257
(1,4,7): (1,3,7) -1.41527 (1,4,6) 0.341794 (1,4,8) -1.11593 (1,5,7) 2.45165
(1,4,8): (1,3,8) -0.776930 (1,4,7) 1.11593 (1,4,9) -0.868782 (1,5,8) 0.747102
(1,4,9): (1,3,9) -0.351196 (1,4,8) 0.868782 (1,4,10) -0.417692 (1,5,9) 7.582096E-02
(1,4,10): (1,3,10) -0.175037 (1,4,9) 0.417692 (1,5,10) -8.922359E-02
(1,5,1): (1,4,1) 6.729205E-02 (1,5,2) 0.241694 (1,6,1) -0.296079
(1,5,2): (1,4,2) 5.462497E-02 (1,5,1) -0.241694 (1,5,3) 0.684685 (1,6,2) -0.486074
(1,5,3): (1,4,3) -9.594049E-02 (1,5,2) -0.684685 (1,5,4) 1.58958 (1,6,3) -0.784559
(1,5,4): (1,4,4) -0.755918 (1,5,3) -1.58958 (1,5,5) 2.84724 (1,6,4) -0.431740
(1,5,5): (1,4,5) -2.45468 (1,5,4) -2.84724 (1,5,6) 0.462926 (1,6,5) 4.97751
(1,5,6): (1,4,6) -2.56257 (1,5,5) -0.462926 (1,5,7) -0.450808 (1,6,6) 3.64966
(1,5,7): (1,4,7) -2.45165 (1,5,6) 0.450808 (1,5,8) -2.82615 (1,6,7) 4.96782
(1,5,8): (1,4,8) -0.747102 (1,5,7) 2.82615 (1,5,9) -1.54512 (1,6,8) -0.460364
(1,5,9): (1,4,9) -7.582096E-02 (1,5,8) 1.54512 (1,5,10) -0.583477 (1,6,9) -0.859604
(1,5,10): (1,4,10) 8.922359E-02 (1,5,9) 0.583477 (1,6,10) -0.664077
(1,6,1): (1,5,1) 0.296079 (1,6,2) 5.215612E-02 (1,7,1) -0.460772
(1,6,2): (1,5,2) 0.486074 (1,6,1) -5.215612E-02 (1,6,3) 0.386488 (1,7,2) -0.960703
(1,6,3): (1,5,3) 0.784559 (1,6,2) -0.386488 (1,6,4) 1.94640 (1,7,3) -2.50575
(1,6,4): (1,5,4) 0.431740 (1,6,3) -1.94640 (1,6,5) 8.40900 (1,7,4) -7.01648
(1,6,5): (1,5,5) -4.97751 (1,6,4) -8.40900 (1,6,6) -0.822094 (1,7,5) -21.5778
(1,6,6): (1,5,6) -3.64966 (1,6,5) 0.822094 (1,6,7) 0.824895 (1,7,6) -33.7274
(1,6,7): (1,5,7) -4.96782 (1,6,6) -0.824895 (1,6,8) -8.40756 (1,7,7) -21.5900
(1,6,8): (1,5,8) 0.460364 (1,6,7) 8.40756 (1,6,9) -1.94859 (1,7,8) -7.05430
(1,6,9): (1,5,9) 0.859604 (1,6,8) 1.94859 (1,6,10) -0.388465 (1,7,9) -2.61322
(1,6,10): (1,5,10) 0.664077 (1,6,9) 0.388465 (1,7,10) -1.25534
(1,7,1): (1,6,1) 0.460772 (1,7,2) -0.445241 (1,8,1) -0.246416
(1,7,2): (1,6,2) 0.960703 (1,7,1) 0.445241 (1,7,3) -1.13941 (1,8,2) -0.552837
(1,7,3): (1,6,3) 2.50575 (1,7,2) 1.13941 (1,7,4) -2.40878 (1,8,3) -1.58697
(1,7,4): (1,6,4) 7.01648 (1,7,3) 2.40878 (1,7,5) -4.88634 (1,8,4) -4.88973
(1,7,5): (1,6,5) 21.5778 (1,7,4) 4.88634 (1,7,6) -10.8479 (1,8,5) -15.8605
(1,7,6): (1,6,6) 33.7274 (1,7,5) 10.8479 (1,7,7) 10.8396 (1,8,6) -55.5482
(1,7,7): (1,6,7) 21.5900 (1,7,6) -10.8396 (1,7,8) 4.86121 (1,8,7) -15.8658
(1,7,8): (1,6,8) 7.05430 (1,7,7) -4.86121 (1,7,9) 2.33543 (1,8,8) -4.90829
(1,7,9): (1,6,9) 2.61322 (1,7,8) -2.33543 (1,7,10) 0.948812 (1,8,9) -1.64213
(1,7,10): (1,6,10) 1.25534 (1,7,9) -0.948812 (1,8,10) -0.712203
(1,8,1): (1,7,1) 0.246416 (1,8,2) -0.752282 (1,9,1) 0.224617
(1,8,2): (1,7,2) 0.552837 (1,8,1) 0.752282 (1,8,3) -2.17983 (1,9,2) 0.522136
(1,8,3): (1,7,3) 1.58697 (1,8,2) 2.17983 (1,8,4) -5.74091 (1,9,3) 1.52502
(1,8,4): (1,7,4) 4.88973 (1,8,3) 5.74091 (1,8,5) -15.8567 (1,9,4) 4.73078
(1,8,5): (1,7,5) 15.8605 (1,8,4) 15.8567 (1,8,6) -47.5782 (1,9,5) 15.4487
(1,8,6): (1,7,6) 55.5482 (1,8,5) 47.5782 (1,8,7) 47.5568 (1,9,6) 54.8576
(1,8,7): (1,7,7) 15.8658 (1,8,6) -47.5568 (1,8,8) 15.8126 (1,9,7) 15.4525
(1,8,8): (1,7,8) 4.90829 (1,8,7) -15.8126 (1,8,9) 5.62613 (1,9,8) 4.74613
(1,8,9): (1,7,9) 1.64213 (1,8,8) -5.62613 (1,8,10) 1.88103 (1,9,9) 1.57444
(1,8,10): (1,7,10) 0.712203 (1,8,9) -1.88103 (1,9,10) 0.671672
(1,9,1): (1,8,1) -0.224617 (1,9,2) -0.454068 (1,10,1) 0.444347
(1,9,2): (1,8,2) -0.522136 (1,9,1) 0.454068 (1,9,3) -1.17020 (1,10,2) 0.936667
(1,9,3): (1,8,3) -1.52502 (1,9,2) 1.17020 (1,9,4) -2.50120 (1,10,3) 2.44925
(1,9,4): (1,8,4) -4.73078 (1,9,3) 2.50120 (1,9,5) -5.09243 (1,10,4) 6.81251
(1,9,5): (1,8,5) -15.4487 (1,9,4) 5.09243 (1,9,6) -10.8751 (1,10,5) 20.6506
(1,9,6): (1,8,6) -54.8576 (1,9,5) 10.8751 (1,9,7) 10.8654 (1,10,6) 32.5753
(1,9,7): (1,8,7) -15.4525 (1,9,6) -10.8654 (1,9,8) 5.06541 (1,10,7) 20.6616
(1,9,8): (1,8,8) -4.74613 (1,9,7) -5.06541 (1,9,9) 2.42512 (1,10,8) 6.84787
(1,9,9): (1,8,9) -1.57444 (1,9,8) -2.42512 (1,9,10) 0.975403 (1,10,9) 2.55232
(1,9,10): (1,8,10) -0.671672 (1,9,9) -0.975403 (1,10,10) 1.22368
(1,10,1): (1,9,1) -0.444347 (1,10,2) 3.590113E-02 (1,11,1) 0.289974
(1,10,2): (1,9,2) -0.936667 (1,10,1) -3.590113E-02 (1,10,3) 0.324472 (1,11,2) 0.483031
(1,10,3): (1,9,3) -2.44925 (1,10,2) -0.324472 (1,10,4) 1.71567 (1,11,3) 0.803846
(1,10,4): (1,9,4) -6.81251 (1,10,3) -1.71567 (1,10,5) 7.55550 (1,11,4) 0.572599
(1,10,5): (1,9,5) -20.6506 (1,10,4) -7.55550 (1,10,6) -0.971801 (1,11,5) -4.22909
(1,10,6): (1,9,6) -32.5753 (1,10,5) 0.971801 (1,10,7) 0.972273 (1,11,6) -2.82480
(1,10,7): (1,9,7) -20.6616 (1,10,6) -0.972273 (1,10,8) -7.55724 (1,11,7) -4.21995
(1,10,8): (1,9,8) -6.84787 (1,10,7) 7.55724 (1,10,9) -1.72251 (1,11,8) 0.600087
(1,10,9): (1,9,9) -2.55232 (1,10,8) 1.72251 (1,10,10) -0.333790 (1,11,9) 0.876966
(1,10,10): (1,9,10) -1.22368 (1,10,9) 0.333790 (1,11,10) 0.658649
(1,11,1): (1,10,1) -0.289974 (1,11,2) 0.228473 (1,12,1) 6.929010E-02
(1,11,2): (1,10,2) -0.483031 (1,11,1) -0.228473 (1,11,3) 0.644794 (1,12,2) 6.059474E-02
(1,11,3): (1,10,3) -0.803846 (1,11,2) -0.644794 (1,11,4) 1.48232 (1,12,3) -7.155420E-02
(1,11,4): (1,10,4) -0.572599 (1,11,3) -1.48232 (1,11,5) 2.62137 (1,12,4) -0.666173
(1,11,5): (1,10,5) 4.22909 (1,11,4) -2.62137 (1,11,6) 0.396002 (1,12,5) -2.20142
(1,11,6): (1,10,6) 2.82480 (1,11,5) -0.396002 (1,11,7) -0.386691 (1,12,6) -2.26465
(1,11,7): (1,10,7) 4.21995 (1,11,6) 0.386691 (1,11,8) -2.60407 (1,12,7) -2.19830
(1,11,8): (1,10,8) -0.600087 (1,11,7) 2.60407 (1,11,9) -1.44331 (1,12,8) -0.657198
(1,11,9): (1,10,9) -0.876966 (1,11,8) 1.44331 (1,11,10) -0.551425 (1,12,9) -5.111612E-02
(1,11,10): (1,10,10) -0.658649 (1,11,9) 0.551425 (1,12,10) 9.625176E-02
(1,12,1): (1,11,1) -6.929010E-02 (1,12,2) 0.219763 (1,13,1) -5.703970E-02
(1,12,2): (1,11,2) -6.059474E-02 (1,12,1) -0.219763 (1,12,3) 0.511938 (1,13,2) -0.125763
(1,12,3): (1,11,3) 7.155420E-02 (1,12,2) -0.511938 (1,12,4) 0.883095 (1,13,3) -0.319402
(1,12,4): (1,11,4) 0.666173 (1,12,3) -0.883095 (1,12,5) 1.08035 (1,13,4) -0.731372
(1,12,5): (1,11,5) 2.20142 (1,12,4) -1.08035 (1,12,6) 0.333701 (1,13,5) -1.33106
(1,12,6): (1,11,6) 2.26465 (1,12,5) -0.333701 (1,12,7) -0.321332 (1,13,6) -1.48553
(1,12,7): (1,11,7) 2.19830 (1,12,6) 0.321332 (1,12,8) -1.05736 (1,13,7) -1.33244
(1,12,8): (1,11,8) 0.657198 (1,12,7) 1.05736 (1,12,9) -0.832711 (1,13,8) -0.735706
(1,12,9): (1,11,9) 5.111612E-02 (1,12,8) 0.832711 (1,12,10) -0.403426 (1,13,9) -0.332149
(1,12,10): (1,11,10) -9.625176E-02 (1,12,9) 0.403426 (1,13,10) -0.163228
(1,13,1): (1,12,1) 5.703970E-02 (1,13,2) 0.150977 (1,14,1) -8.284777E-02
(1,13,2): (1,12,2) 0.125763 (1,13,1) -0.150977 (1,13,3) 0.317935 (1,14,2) -0.142863
(1,13,3): (1,12,3) 0.319402 (1,13,2) -0.317935 (1,13,4) 0.470527 (1,14,3) -0.280923
(1,13,4): (1,12,4) 0.731372 (1,13,3) -0.470527 (1,13,5) 0.482066 (1,14,4) -0.508904
(1,13,5): (1,12,5) 1.33106 (1,13,4) -0.482066 (1,13,6) 0.180857 (1,14,5) -0.765747
(1,13,6): (1,12,6) 1.48553 (1,13,5) -0.180857 (1,13,7) -0.169872 (1,14,6) -0.857092
(1,13,7): (1,12,7) 1.33244 (1,13,6) 0.169872 (1,13,8) -0.462159 (1,14,7) -0.768528
(1,13,8): (1,12,8) 0.735706 (1,13,7) 0.462159 (1,13,9) -0.428779 (1,14,8) -0.517088
(1,13,9): (1,12,9) 0.332149 (1,13,8) 0.428779 (1,13,10) -0.234388 (1,14,9) -0.301686
(1,13,10): (1,12,10) 0.163228 (1,13,9) 0.234388 (1,14,10) -0.192254
(1,14,1): (1,13,1) 8.284777E-02 (1,14,2) 9.095647E-02 (1,15,1) -5.180822E-02
(1,14,2): (1,13,2) 0.142863 (1,14,1) -9.095647E-02 (1,14,3) 0.179825 (1,15,2) -8.304015E-02
(1,14,3): (1,13,3) 0.280923 (1,14,2) -0.179825 (1,14,4) 0.242631 (1,15,3) -0.149280
(1,14,4): (1,13,4) 0.508904 (1,14,3) -0.242631 (1,14,5) 0.225922 (1,15,4) -0.246971
(1,14,5): (1,13,5) 0.765747 (1,14,4) -0.225922 (1,14,6) 9.009746E-02 (1,15,5) -0.345090
(1,14,6): (1,13,6) 0.857092 (1,14,5) -9.009746E-02 (1,14,7) -8.188585E-02 (1,15,6) -0.383337
(1,14,7): (1,13,7) 0.768528 (1,14,6) 8.188585E-02 (1,14,8) -0.211457 (1,15,7) -0.346986
(1,14,8): (1,13,8) 0.517088 (1,14,7) 0.211457 (1,14,9) -0.213562 (1,15,8) -0.252443
(1,14,9): (1,13,9) 0.301686 (1,14,8) 0.213562 (1,14,10) -0.125028 (1,15,9) -0.162630
(1,14,10): (1,13,10) 0.192254 (1,14,9) 0.125028 (1,15,10) -0.112952
(1,15,1): (1,14,1) 5.180822E-02 (1,15,2) 5.972208E-02
(1,15,2): (1,14,2) 8.304015E-02 (1,15,1) -5.972208E-02 (1,15,3) 0.113565
(1,15,3): (1,14,3) 0.149280 (1,15,2) -0.113565 (1,15,4) 0.144944
(1,15,4): (1,14,4) 0.246971 (1,15,3) -0.144944 (1,15,5) 0.127917
(1,15,5): (1,14,5) 0.345090 (1,15,4) -0.127917 (1,15,6) 5.196013E-02
(1,15,6): (1,14,6) 0.383337 (1,15,5) -5.196013E-02 (1,15,7) -4.564158E-02
(1,15,7): (1,14,7) 0.346986 (1,15,6) 4.564158E-02 (1,15,8) -0.117039
(1,15,8): (1,14,8) 0.252443 (1,15,7) 0.117039 (1,15,9) -0.123783
(1,15,9): (1,14,9) 0.162630 (1,15,8) 0.123783 (1,15,10) -7.536896E-02
(1,15,10): (1,14,10) 0.112952 (1,15,9) 7.536896E-02

 WEL PACKAGE (WEL-1) FLOW RATES   PERIOD      2   STEP       81
 ----------------------------------------------------------------------------------------
   NUMBER   CELLID                    RATE       NAME                                    
 ----------------------------------------------------------------------------------------
     1      (1,8,6)              -205.60340      WEL                                     
 ----------------------------------------------------------------------------------------




 DRN PACKAGE (DRN-0) FLOW RATES   PERIOD      2   STEP       81
 ----------------------------------------------------------------------------------------
   NUMBER   CELLID                    RATE       NAME                                    
 ----------------------------------------------------------------------------------------
     1      (1,1,1)               0.0000000      SURF                                    
     2      (1,1,2)               0.0000000      SURF                                    
     3      (1,1,3)               0.0000000      SURF                                    
     4      (1,1,4)               0.0000000      SURF                                    
     5      (1,1,5)               0.0000000      SURF                                    
     6      (1,1,6)               0.0000000      SURF                                    
     7      (1,1,7)               0.0000000      SURF                                    
     8      (1,1,8)               0.0000000      SURF                                    
     9      (1,1,9)               0.0000000      SURF                                    
     10     (1,1,10)              0.0000000      SURF                                    
     11     (1,2,1)               0.0000000      SURF                                    
     12     (1,2,2)               0.0000000      SURF                                    
     13     (1,2,3)               0.0000000      SURF                                    
     14     (1,2,4)               0.0000000      SURF                                    
     15     (1,2,5)               0.0000000      SURF                                    
     16     (1,2,6)               0.0000000      SURF                                    
     17     (1,2,7)               0.0000000      SURF                                    
     18     (1,2,8)               0.0000000      SURF                                    
     19     (1,2,9)               0.0000000      SURF                                    
     20     (1,2,10)              0.0000000      SURF                                    
     21     (1,3,1)               0.0000000      SURF                                    
     22     (1,3,2)               0.0000000      SURF                                    
     23     (1,3,3)               0.0000000      SURF                                    
     24     (1,3,4)               0.0000000      SURF                                    
     25     (1,3,5)               0.0000000      SURF                                    
     26     (1,3,6)               0.0000000      SURF                                    
     27     (1,3,7)               0.0000000      SURF                                    
     28     (1,3,8)               0.0000000      SURF                                    
     29     (1,3,9)               0.0000000      SURF                                    
     30     (1,3,10)              0.0000000      SURF                                    
     31     (1,4,1)               0.0000000      SURF                                    
     32     (1,4,2)               0.0000000      SURF                                    
     33     (1,4,3)               0.0000000      SURF                                    
     34     (1,4,4)               0.0000000      SURF                                    
     35     (1,4,5)               0.0000000      SURF                                    
     36     (1,4,6)               0.0000000      SURF                                    
     37     (1,4,7)               0.0000000      SURF                                    
     38     (1,4,8)               0.0000000      SURF                                    
     39     (1,4,9)               0.0000000      SURF                                    
     40     (1,4,10)              0.0000000      SURF                                    
     41     (1,5,1)               0.0000000      SURF                                    
     42     (1,5,2)               0.0000000      SURF                                    
     43     (1,5,3)               0.0000000      SURF                                    
     44     (1,5,4)               0.0000000      SURF                                    
     45     (1,5,5)               0.0000000      SURF                                    
     46     (1,5,6)               0.0000000      SURF                                    
     47     (1,5,7)               0.0000000      SURF                                    
     48     (1,5,8)               0.0000000      SURF                                    
     49     (1,5,9)               0.0000000      SURF                                    
     50     (1,5,10)              0.0000000      SURF                                    
     51     (1,6,1)               0.0000000      SURF                                    
     52     (1,6,2)               0.0000000      SURF                                    
     53     (1,6,3)               0.0000000      SURF                                    
     54     (1,6,4)               0.0000000      SURF                                    
     55     (1,6,5)               0.0000000      SURF                                    
     56     (1,6,6)               0.0000000      SURF                                    
     57     (1,6,7)              -3.13943019E-07 SURF                                    
     58     (1,6,8)               0.0000000      SURF                                    
     59     (1,6,9)               0.0000000      SURF                                    
     60     (1,6,10)              0.0000000      SURF                                    
     61     (1,7,1)               0.0000000      SURF                                    
     62     (1,7,2)               0.0000000      SURF                                    
     63     (1,7,3)               0.0000000      SURF                                    
     64     (1,7,4)               0.0000000      SURF                                    
     65     (1,7,5)               0.0000000      SURF                                    
     66     (1,7,6)               0.0000000      SURF                                    
     67     (1,7,7)               0.0000000      SURF                                    
     68     (1,7,8)               0.0000000      SURF                                    
     69     (1,7,9)               0.0000000      SURF                                    
     70     (1,7,10)              0.0000000      SURF                                    
     71     (1,8,1)               0.0000000      SURF                                    
     72     (1,8,2)               0.0000000      SURF                                    
     73     (1,8,3)               0.0000000      SURF                                    
     74     (1,8,4)               0.0000000      SURF                                    
     75     (1,8,5)               0.0000000      SURF                                    
     76     (1,8,6)               0.0000000      SURF                                    
     77     (1,8,7)               0.0000000      SURF                                    
     78     (1,8,8)               0.0000000      SURF                                    
     79     (1,8,9)               0.0000000      SURF                                    
     80     (1,8,10)              0.0000000      SURF                                    
     81     (1,9,1)               0.0000000      SURF                                    
     82     (1,9,2)               0.0000000      SURF                                    
     83     (1,9,3)               0.0000000      SURF                                    
     84     (1,9,4)               0.0000000      SURF                                    
     85     (1,9,5)               0.0000000      SURF                                    
     86     (1,9,6)               0.0000000      SURF                                    
     87     (1,9,7)               0.0000000      SURF                                    
     88     (1,9,8)               0.0000000      SURF                                    
     89     (1,9,9)               0.0000000      SURF                                    
     90     (1,9,10)              0.0000000      SURF                                    
     91     (1,10,1)              0.0000000      SURF                                    
     92     (1,10,2)              0.0000000      SURF                                    
     93     (1,10,3)              0.0000000      SURF                                    
     94     (1,10,4)              0.0000000      SURF                                    
     95     (1,10,5)              0.0000000      SURF                                    
     96     (1,10,6)              0.0000000      SURF                                    
     97     (1,10,7)              0.0000000      SURF                                    
     98     (1,10,8)              0.0000000      SURF                                    
     99     (1,10,9)              0.0000000      SURF                                    
    100     (1,10,10)             0.0000000      SURF                                    
    101     (1,11,1)              0.0000000      SURF                                    
    102     (1,11,2)              0.0000000      SURF                                    
    103     (1,11,3)              0.0000000      SURF                                    
    104     (1,11,4)              0.0000000      SURF                                    
    105     (1,11,5)              0.0000000      SURF                                    
    106     (1,11,6)              0.0000000      SURF                                    
    107     (1,11,7)              0.0000000      SURF                                    
    108     (1,11,8)              0.0000000      SURF                                    
    109     (1,11,9)              0.0000000      SURF                                    
    110     (1,11,10)             0.0000000      SURF                                    
    111     (1,12,1)              0.0000000      SURF                                    
    112     (1,12,2)              0.0000000      SURF                                    
    113     (1,12,3)              0.0000000      SURF                                    
    114     (1,12,4)              0.0000000      SURF                                    
    115     (1,12,5)              0.0000000      SURF                                    
    116     (1,12,6)              0.0000000      SURF                                    
    117     (1,12,7)              0.0000000      SURF                                    
    118     (1,12,8)              0.0000000      SURF                                    
    119     (1,12,9)              0.0000000      SURF                                    
    120     (1,12,10)             0.0000000      SURF                                    
    121     (1,13,1)              0.0000000      SURF                                    
    122     (1,13,2)              0.0000000      SURF                                    
    123     (1,13,3)              0.0000000      SURF                                    
    124     (1,13,4)              0.0000000      SURF                                    
    125     (1,13,5)              0.0000000      SURF                                    
    126     (1,13,6)              0.0000000      SURF                                    
    127     (1,13,7)              0.0000000      SURF                                    
    128     (1,13,8)              0.0000000      SURF                                    
    129     (1,13,9)              0.0000000      SURF                                    
    130     (1,13,10)             0.0000000      SURF                                    
    131     (1,14,1)              0.0000000      SURF                                    
    132     (1,14,2)              0.0000000      SURF                                    
    133     (1,14,3)              0.0000000      SURF                                    
    134     (1,14,4)              0.0000000      SURF                                    
    135     (1,14,5)              0.0000000      SURF                                    
    136     (1,14,6)              0.0000000      SURF                                    
    137     (1,14,7)              0.0000000      SURF                                    
    138     (1,14,8)              0.0000000      SURF                                    
    139     (1,14,9)              0.0000000      SURF                                    
    140     (1,14,10)             0.0000000      SURF                                    
    141     (1,15,1)              0.0000000      SURF                                    
    142     (1,15,2)              0.0000000      SURF                                    
    143     (1,15,3)              0.0000000      SURF                                    
    144     (1,15,4)              0.0000000      SURF                                    
    145     (1,15,5)              0.0000000      SURF                                    
    146     (1,15,6)              0.0000000      SURF                                    
    147     (1,15,7)              0.0000000      SURF                                    
    148     (1,15,8)              0.0000000      SURF                                    
    149     (1,15,9)              0.0000000      SURF                                    
    150     (1,15,10)             0.0000000      SURF                                    
 ----------------------------------------------------------------------------------------




 API PACKAGE (MAR) FLOW RATES   PERIOD      2   STEP       81
 -----------------------------------------------
   NUMBER   CELLID                    RATE      
 -----------------------------------------------
     1      (1,6,5)               35.790244     
     2      (1,6,6)               35.790244     
     3      (1,6,7)               35.790244     
     4      (1,10,5)              32.744223     
     5      (1,10,6)              32.744223     
     6      (1,10,7)              32.744223     
 -----------------------------------------------



1
  HEAD IN LAYER   1 AT END OF TIME STEP  81 IN STRESS PERIOD    2
  ---------------------------------------------------------------------------

            1           2           3           4           5           6           7           8           9          10
 ........................................................................................................................
   1   1.6675E-02  2.3095E-02  3.5202E-02  5.0513E-02  6.3941E-02  6.9412E-02  6.4713E-02  5.2566E-02  3.9664E-02  3.1775E-02
   2   2.2312E-02  3.1916E-02  5.0747E-02  7.5938E-02  9.9283E-02  0.1086      0.1003      7.8599E-02  5.6655E-02  4.3763E-02
   3   3.1304E-02  4.7011E-02  7.9840E-02  0.1281      0.1775      0.1960      0.1788      0.1317      8.7981E-02  6.4050E-02
   4   3.7643E-02  6.0406E-02  0.1131      0.2037      0.3145      0.3490      0.3160      0.2078      0.1227      8.1412E-02
   5   3.0939E-02  5.4976E-02  0.1226      0.2773      0.5472      0.5909      0.5484      0.2805      0.1302      7.2562E-02
   6   1.4221E-03  6.6343E-03  4.5110E-02  0.2353      0.9997      0.9250       1.000      0.2357      4.5304E-02  6.6329E-03
   7  -4.4649E-02 -8.9372E-02 -0.2043     -0.4502     -0.9619      -2.162     -0.9627     -0.4535     -0.2148     -0.1188    
   8  -6.9401E-02 -0.1452     -0.3663     -0.9623      -2.717      -9.249      -2.718     -0.9677     -0.3827     -0.1909    
   9  -4.6833E-02 -9.2454E-02 -0.2106     -0.4661      -1.000      -2.209      -1.001     -0.4697     -0.2216     -0.1229    
  10  -2.3879E-03  1.2018E-03  3.3540E-02  0.2017      0.8952      0.8060      0.8952      0.2016      3.2753E-02 -5.1656E-04
  11   2.6533E-02  4.9268E-02  0.1130      0.2575      0.5070      0.5446      0.5079      0.2601      0.1194      6.4923E-02
  12   3.3439E-02  5.5294E-02  0.1060      0.1926      0.2975      0.3298      0.2987      0.1960      0.1144      7.4477E-02
  13   2.7754E-02  4.2787E-02  7.4346E-02  0.1208      0.1682      0.1860      0.1693      0.1239      8.1525E-02  5.8275E-02
  14   1.9492E-02  2.8562E-02  4.6461E-02  7.0554E-02  9.2938E-02  0.1019      9.3751E-02  7.2802E-02  5.1600E-02  3.9161E-02
  15   1.4321E-02  2.0281E-02  3.1602E-02  4.6030E-02  5.8747E-02  6.3910E-02  5.9375E-02  4.7740E-02  3.5420E-02  2.7910E-02

 HEAD WILL BE SAVED ON UNIT 1100 AT END OF TIME STEP   81, STRESS PERIOD    2


  VOLUME BUDGET FOR ENTIRE MODEL AT END OF TIME STEP   81, STRESS PERIOD   2
  ---------------------------------------------------------------------------------------------------

     CUMULATIVE VOLUME      L**3       RATES FOR THIS TIME STEP      L**3/T          PACKAGE NAME    
     ------------------                 ------------------------                     ----------------

           IN:                                      IN:
           ---                                      ---
              STO-SS =          24.8359                STO-SS =       8.4581E-03     STORAGE                          
              STO-SY =       61251.6026                STO-SY =          17.5601     STORAGE                          
                 WEL =           0.0000                   WEL =           0.0000     WEL-1                            
                 DRN =           0.0000                   DRN =           0.0000     DRN-0                            
                 API =      165708.9682                   API =         205.6034     MAR                              
                 CHD =       2.0279E-08                   CHD =           0.0000     CHD_0                            

            TOTAL IN =      226985.4066              TOTAL IN =         223.1720

          OUT:                                     OUT:
          ----                                     ----
              STO-SS =          21.3393                STO-SS =       8.8839E-03     STORAGE                          
              STO-SY =       41686.2926                STO-SY =          17.5597     STORAGE                          
                 WEL =      185277.7744                   WEL =         205.6034     WEL-1                            
                 DRN =       2.6970E-04                   DRN =       3.1394E-07     DRN-0                            
                 API =           0.0000                   API =           0.0000     MAR                              
                 CHD =       2.0705E-08                   CHD =           0.0000     CHD_0                            

           TOTAL OUT =      226985.4066             TOTAL OUT =         223.1720

            IN - OUT =      -1.0065E-06              IN - OUT =       7.9598E-10

 PERCENT DISCREPANCY =          -0.00     PERCENT DISCREPANCY =           0.00




         TIME SUMMARY AT END OF TIME STEP   81 IN STRESS PERIOD    2
                    SECONDS     MINUTES      HOURS       DAYS        YEARS
                    -----------------------------------------------------------
   TIME STEP LENGTH 8.64000E+05  14400.      240.00      10.000     2.73785E-02
 STRESS PERIOD TIME 6.99840E+07 1.16640E+06  19440.      810.00      2.2177    
         TOTAL TIME 7.00704E+07 1.16784E+06  19464.      811.00      2.2204    


end timestep


start timestep kper="2" kstp="82" mode="normal"

 UBDSV1 SAVING           STO-SS ON UNIT   1099 AT TIME STEP     82, STRESS PERIOD      2
 UBDSV1 SAVING           STO-SY ON UNIT   1099 AT TIME STEP     82, STRESS PERIOD      2
 UBDSV1 SAVING     FLOW-JA-FACE ON UNIT   1099 AT TIME STEP     82, STRESS PERIOD      2
 UBDSV06 SAVING       DATA-SPDIS IN MODEL GWF              PACKAGE NPF             CONNECTED TO MODEL GWF              PACKAGE NPF              ON UNIT   1099 AT TIME STEP     82, STRESS PERIOD      2
 UBDSV06 SAVING              WEL IN MODEL GWF              PACKAGE GWF             CONNECTED TO MODEL GWF              PACKAGE WEL-1            ON UNIT   1099 AT TIME STEP     82, STRESS PERIOD      2
 UBDSV06 SAVING              DRN IN MODEL GWF              PACKAGE GWF             CONNECTED TO MODEL GWF              PACKAGE DRN-0            ON UNIT   1099 AT TIME STEP     82, STRESS PERIOD      2
 UBDSV06 SAVING              API IN MODEL GWF              PACKAGE GWF             CONNECTED TO MODEL GWF              PACKAGE MAR              ON UNIT   1099 AT TIME STEP     82, STRESS PERIOD      2
 UBDSV06 SAVING              CHD IN MODEL GWF              PACKAGE GWF             CONNECTED TO MODEL GWF              PACKAGE CHD_0            ON UNIT   1099 AT TIME STEP     82, STRESS PERIOD      2

    CALCULATED INTERCELL FLOW FOR PERIOD 2 STEP 82
(1,1,1): (1,1,2) 6.558262E-02 (1,2,1) 5.691860E-02
(1,1,2): (1,1,1) -6.558262E-02 (1,1,3) 0.123637 (1,2,2) 8.897513E-02
(1,1,3): (1,1,2) -0.123637 (1,1,4) 0.156320 (1,2,3) 0.156840
(1,1,4): (1,1,3) -0.156320 (1,1,5) 0.137125 (1,2,4) 0.256984
(1,1,5): (1,1,4) -0.137125 (1,1,6) 5.594603E-02 (1,2,5) 0.357926
(1,1,6): (1,1,5) -5.594603E-02 (1,1,7) -4.779706E-02 (1,2,6) 0.397403
(1,1,7): (1,1,6) 4.779706E-02 (1,1,8) -0.123715 (1,2,7) 0.360168
(1,1,8): (1,1,7) 0.123715 (1,1,9) -0.131373 (1,2,8) 0.263246
(1,1,9): (1,1,8) 0.131373 (1,1,10) -8.027719E-02 (1,2,9) 0.171589
(1,1,10): (1,1,9) 8.027719E-02 (1,2,10) 0.121045
(1,2,1): (1,1,1) -5.691860E-02 (1,2,2) 9.764190E-02 (1,3,1) 9.020080E-02
(1,2,2): (1,1,2) -8.897513E-02 (1,2,1) -9.764190E-02 (1,2,3) 0.191525 (1,3,2) 0.151603
(1,2,3): (1,1,3) -0.156840 (1,2,2) -0.191525 (1,2,4) 0.256463 (1,3,3) 0.293196
(1,2,4): (1,1,4) -0.256984 (1,2,3) -0.256463 (1,2,5) 0.237950 (1,3,4) 0.528506
(1,2,5): (1,1,5) -0.357926 (1,2,4) -0.237950 (1,2,6) 9.530678E-02 (1,3,5) 0.796107
(1,2,6): (1,1,6) -0.397403 (1,2,5) -9.530678E-02 (1,2,7) -8.491885E-02 (1,3,6) 0.891836
(1,2,7): (1,1,7) -0.360168 (1,2,6) 8.491885E-02 (1,2,8) -0.220505 (1,3,7) 0.799401
(1,2,8): (1,1,8) -0.263246 (1,2,7) 0.220505 (1,2,9) -0.222993 (1,3,8) 0.537837
(1,2,9): (1,1,9) -0.171589 (1,2,8) 0.222993 (1,2,10) -0.130802 (1,3,9) 0.315944
(1,2,10): (1,1,10) -0.121045 (1,2,9) 0.130802 (1,3,10) 0.204029
(1,3,1): (1,2,1) -9.020080E-02 (1,3,2) 0.159048 (1,4,1) 6.190163E-02
(1,3,2): (1,2,2) -0.151603 (1,3,1) -0.159048 (1,3,3) 0.333174 (1,4,2) 0.132629
(1,3,3): (1,2,3) -0.293196 (1,3,2) -0.333174 (1,3,4) 0.491689 (1,4,3) 0.334138
(1,3,4): (1,2,4) -0.528506 (1,3,3) -0.491689 (1,3,5) 0.504805 (1,4,4) 0.768894
(1,3,5): (1,2,5) -0.796107 (1,3,4) -0.504805 (1,3,6) 0.190400 (1,4,5) 1.41104
(1,3,6): (1,2,6) -0.891836 (1,3,5) -0.190400 (1,3,7) -0.176728 (1,4,6) 1.58072
(1,3,7): (1,2,7) -0.799401 (1,3,6) 0.176728 (1,3,8) -0.481274 (1,4,7) 1.41278
(1,3,8): (1,2,8) -0.537837 (1,3,7) 0.481274 (1,3,9) -0.444686 (1,4,8) 0.773977
(1,3,9): (1,2,9) -0.315944 (1,3,8) 0.444686 (1,3,10) -0.242636 (1,4,9) 0.348097
(1,3,10): (1,2,10) -0.204029 (1,3,9) 0.242636 (1,4,10) 0.172013
(1,4,1): (1,3,1) -6.190163E-02 (1,4,2) 0.229844 (1,5,1) -7.158176E-02
(1,4,2): (1,3,2) -0.132629 (1,4,1) -0.229844 (1,4,3) 0.535077 (1,5,2) -5.980037E-02
(1,4,3): (1,3,3) -0.334138 (1,4,2) -0.535077 (1,4,4) 0.927102 (1,5,3) 8.965117E-02
(1,4,4): (1,3,4) -0.768894 (1,4,3) -0.927102 (1,4,5) 1.14537 (1,5,4) 0.749254
(1,4,5): (1,3,5) -1.41104 (1,4,4) -1.14537 (1,4,6) 0.358205 (1,5,5) 2.44877
(1,4,6): (1,3,6) -1.58072 (1,4,5) -0.358205 (1,4,7) -0.342784 (1,5,6) 2.55715
(1,4,7): (1,3,7) -1.41278 (1,4,6) 0.342784 (1,4,8) -1.11833 (1,5,7) 2.44550
(1,4,8): (1,3,8) -0.773977 (1,4,7) 1.11833 (1,4,9) -0.870959 (1,5,8) 0.739847
(1,4,9): (1,3,9) -0.348097 (1,4,8) 0.870959 (1,4,10) -0.418841 (1,5,9) 6.832999E-02
(1,4,10): (1,3,10) -0.172013 (1,4,9) 0.418841 (1,5,10) -9.648605E-02
(1,5,1): (1,4,1) 7.158176E-02 (1,5,2) 0.241645 (1,6,1) -0.302314
(1,5,2): (1,4,2) 5.980037E-02 (1,5,1) -0.241645 (1,5,3) 0.685364 (1,6,2) -0.493587
(1,5,3): (1,4,3) -8.965117E-02 (1,5,2) -0.685364 (1,5,4) 1.59196 (1,6,3) -0.793748
(1,5,4): (1,4,4) -0.749254 (1,5,3) -1.59196 (1,5,5) 2.85095 (1,6,4) -0.441359
(1,5,5): (1,4,5) -2.44877 (1,5,4) -2.85095 (1,5,6) 0.464759 (1,6,5) 4.97031
(1,5,6): (1,4,6) -2.55715 (1,5,5) -0.464759 (1,5,7) -0.452528 (1,6,6) 3.64372
(1,5,7): (1,4,7) -2.44550 (1,5,6) 0.452528 (1,5,8) -2.82981 (1,6,7) 4.96027
(1,5,8): (1,4,8) -0.739847 (1,5,7) 2.82981 (1,5,9) -1.54760 (1,6,8) -0.470830
(1,5,9): (1,4,9) -6.832999E-02 (1,5,8) 1.54760 (1,5,10) -0.584396 (1,6,9) -0.870509
(1,5,10): (1,4,10) 9.648605E-02 (1,5,9) 0.584396 (1,6,10) -0.674547
(1,6,1): (1,5,1) 0.302314 (1,6,2) 5.084658E-02 (1,7,1) -0.466577
(1,6,2): (1,5,2) 0.493587 (1,6,1) -5.084658E-02 (1,6,3) 0.385517 (1,7,2) -0.967791
(1,6,3): (1,5,3) 0.793748 (1,6,2) -0.385517 (1,6,4) 1.94831 (1,7,3) -2.51481
(1,6,4): (1,5,4) 0.441359 (1,6,3) -1.94831 (1,6,5) 8.41576 (1,7,4) -7.02742
(1,6,5): (1,5,5) -4.97031 (1,6,4) -8.41576 (1,6,6) -0.819087 (1,7,5) -21.5910
(1,6,6): (1,5,6) -3.64372 (1,6,5) 0.819087 (1,6,7) 0.821663 (1,7,6) -33.7385
(1,6,7): (1,5,7) -4.96027 (1,6,6) -0.821663 (1,6,8) -8.41480 (1,7,7) -21.6035
(1,6,8): (1,5,8) 0.470830 (1,6,7) 8.41480 (1,6,9) -1.95148 (1,7,8) -7.06602
(1,6,9): (1,5,9) 0.870509 (1,6,8) 1.95148 (1,6,10) -0.388970 (1,7,9) -2.62385
(1,6,10): (1,5,10) 0.674547 (1,6,9) 0.388970 (1,7,10) -1.26515
(1,7,1): (1,6,1) 0.466577 (1,7,2) -0.447803 (1,8,1) -0.248862
(1,7,2): (1,6,2) 0.967791 (1,7,1) 0.447803 (1,7,3) -1.14222 (1,8,2) -0.555993
(1,7,3): (1,6,3) 2.51481 (1,7,2) 1.14222 (1,7,4) -2.40826 (1,8,3) -1.59144
(1,7,4): (1,6,4) 7.02742 (1,7,3) 2.40826 (1,7,5) -4.88048 (1,8,4) -4.89565
(1,7,5): (1,6,5) 21.5910 (1,7,4) 4.88048 (1,7,6) -10.8416 (1,8,5) -15.8659
(1,7,6): (1,6,6) 33.7385 (1,7,5) 10.8416 (1,7,7) 10.8328 (1,8,6) -55.5410
(1,7,7): (1,6,7) 21.6035 (1,7,6) -10.8328 (1,7,8) 4.85438 (1,8,7) -15.8713
(1,7,8): (1,6,8) 7.06602 (1,7,7) -4.85438 (1,7,9) 2.33310 (1,8,8) -4.91450
(1,7,9): (1,6,9) 2.62385 (1,7,8) -2.33310 (1,7,10) 0.948974 (1,8,9) -1.64723
(1,7,10): (1,6,10) 1.26515 (1,7,9) -0.948974 (1,8,10) -0.716507
(1,8,1): (1,7,1) 0.248862 (1,8,2) -0.755555 (1,9,1) 0.226865
(1,8,2): (1,7,2) 0.555993 (1,8,1) 0.755555 (1,8,3) -2.18396 (1,9,2) 0.524477
(1,8,3): (1,7,3) 1.59144 (1,8,2) 2.18396 (1,8,4) -5.74168 (1,9,3) 1.52661
(1,8,4): (1,7,4) 4.89565 (1,8,3) 5.74168 (1,8,5) -15.8488 (1,9,4) 4.72867
(1,8,5): (1,7,5) 15.8659 (1,8,4) 15.8488 (1,8,6) -47.5527 (1,9,5) 15.4362
(1,8,6): (1,7,6) 55.5410 (1,8,5) 47.5527 (1,8,7) 47.5303 (1,9,6) 54.8203
(1,8,7): (1,7,7) 15.8713 (1,8,6) -47.5303 (1,8,8) 15.8033 (1,9,7) 15.4400
(1,8,8): (1,7,8) 4.91450 (1,8,7) -15.8033 (1,8,9) 5.62466 (1,9,8) 4.74431
(1,8,9): (1,7,9) 1.64723 (1,8,8) -5.62466 (1,8,10) 1.88195 (1,9,9) 1.57665
(1,8,10): (1,7,10) 0.716507 (1,8,9) -1.88195 (1,9,10) 0.675024
(1,9,1): (1,8,1) -0.226865 (1,9,2) -0.457245 (1,10,1) 0.450013
(1,9,2): (1,8,2) -0.524477 (1,9,1) 0.457245 (1,9,3) -1.17506 (1,10,2) 0.943243
(1,9,3): (1,8,3) -1.52661 (1,9,2) 1.17506 (1,9,4) -2.50560 (1,10,3) 2.45631
(1,9,4): (1,8,4) -4.72867 (1,9,3) 2.50560 (1,9,5) -5.09447 (1,10,4) 6.81645
(1,9,5): (1,8,5) -15.4362 (1,9,4) 5.09447 (1,9,6) -10.8700 (1,10,5) 20.6399
(1,9,6): (1,8,6) -54.8203 (1,9,5) 10.8700 (1,9,7) 10.8597 (1,10,6) 32.5556
(1,9,7): (1,8,7) -15.4400 (1,9,6) -10.8597 (1,9,8) 5.06646 (1,10,7) 20.6511
(1,9,8): (1,8,8) -4.74431 (1,9,7) -5.06646 (1,9,9) 2.42770 (1,10,8) 6.85258
(1,9,9): (1,8,9) -1.57665 (1,9,8) -2.42770 (1,9,10) 0.977482 (1,10,9) 2.56094
(1,9,10): (1,8,10) -0.675024 (1,9,9) -0.977482 (1,10,10) 1.23290
(1,10,1): (1,9,1) -0.450013 (1,10,2) 3.361015E-02 (1,11,1) 0.296252
(1,10,2): (1,9,2) -0.943243 (1,10,1) -3.361015E-02 (1,10,3) 0.320025 (1,11,2) 0.490895
(1,10,3): (1,9,3) -2.45631 (1,10,2) -0.320025 (1,10,4) 1.70800 (1,11,3) 0.814530
(1,10,4): (1,9,4) -6.81645 (1,10,3) -1.70800 (1,10,5) 7.53923 (1,11,4) 0.587572
(1,10,5): (1,9,5) -20.6399 (1,10,4) -7.53923 (1,10,6) -0.974165 (1,11,5) -4.20321
(1,10,6): (1,9,6) -32.5556 (1,10,5) 0.974165 (1,10,7) 0.974405 (1,11,6) -2.79820
(1,10,7): (1,9,7) -20.6511 (1,10,6) -0.974405 (1,10,8) -7.54145 (1,11,7) -4.19374
(1,10,8): (1,9,8) -6.85258 (1,10,7) 7.54145 (1,10,9) -1.71583 (1,11,8) 0.615893
(1,10,9): (1,9,9) -2.56094 (1,10,8) 1.71583 (1,10,10) -0.331014 (1,11,9) 0.889367
(1,10,10): (1,9,10) -1.23290 (1,10,9) 0.331014 (1,11,10) 0.669556
(1,11,1): (1,10,1) -0.296252 (1,11,2) 0.227748 (1,12,1) 7.361766E-02
(1,11,2): (1,10,2) -0.490895 (1,11,1) -0.227748 (1,11,3) 0.643123 (1,12,2) 6.622642E-02
(1,11,3): (1,10,3) -0.814530 (1,11,2) -0.643123 (1,11,4) 1.47902 (1,12,3) -6.344881E-02
(1,11,4): (1,10,4) -0.587572 (1,11,3) -1.47902 (1,11,5) 2.61599 (1,12,4) -0.654368
(1,11,5): (1,10,5) 4.20321 (1,11,4) -2.61599 (1,11,6) 0.394626 (1,12,5) -2.18455
(1,11,6): (1,10,6) 2.79820 (1,11,5) -0.394626 (1,11,7) -0.385220 (1,12,6) -2.24638
(1,11,7): (1,10,7) 4.19374 (1,11,6) 0.385220 (1,11,8) -2.59864 (1,12,7) -2.18121
(1,11,8): (1,10,8) -0.615893 (1,11,7) 2.59864 (1,11,9) -1.44011 (1,12,8) -0.644823
(1,11,9): (1,10,9) -0.889367 (1,11,8) 1.44011 (1,11,10) -0.550109 (1,12,9) -4.182153E-02
(1,11,10): (1,10,10) -0.669556 (1,11,9) 0.550109 (1,12,10) 0.104058
(1,12,1): (1,11,1) -7.361766E-02 (1,12,2) 0.220345 (1,13,1) -5.537426E-02
(1,12,2): (1,11,2) -6.622642E-02 (1,12,1) -0.220345 (1,12,3) 0.512754 (1,13,2) -0.123473
(1,12,3): (1,11,3) 6.344881E-02 (1,12,2) -0.512754 (1,12,4) 0.883475 (1,13,3) -0.315902
(1,12,4): (1,11,4) 0.654368 (1,12,3) -0.883475 (1,12,5) 1.07989 (1,13,4) -0.726112
(1,12,5): (1,11,5) 2.18455 (1,12,4) -1.07989 (1,12,6) 0.333697 (1,13,5) -1.32379
(1,12,6): (1,11,6) 2.24638 (1,12,5) -0.333697 (1,12,7) -0.321014 (1,13,6) -1.47756
(1,12,7): (1,11,7) 2.18121 (1,12,6) 0.321014 (1,12,8) -1.05650 (1,13,7) -1.32510
(1,12,8): (1,11,8) 0.644823 (1,12,7) 1.05650 (1,12,9) -0.832560 (1,13,8) -0.730238
(1,12,9): (1,11,9) 4.182153E-02 (1,12,8) 0.832560 (1,12,10) -0.403610 (1,13,9) -0.328182
(1,12,10): (1,11,10) -0.104058 (1,12,9) 0.403610 (1,13,10) -0.160034
(1,13,1): (1,12,1) 5.537426E-02 (1,13,2) 0.152182 (1,14,1) -8.293811E-02
(1,13,2): (1,12,2) 0.123473 (1,13,1) -0.152182 (1,13,3) 0.319955 (1,14,2) -0.142840
(1,13,3): (1,12,3) 0.315902 (1,13,2) -0.319955 (1,13,4) 0.472648 (1,14,3) -0.280654
(1,13,4): (1,12,4) 0.726112 (1,13,3) -0.472648 (1,13,5) 0.483568 (1,14,4) -0.508228
(1,13,5): (1,12,5) 1.32379 (1,13,4) -0.483568 (1,13,6) 0.181538 (1,14,5) -0.764590
(1,13,6): (1,12,6) 1.47756 (1,13,5) -0.181538 (1,13,7) -0.170167 (1,14,6) -0.855765
(1,13,7): (1,12,7) 1.32510 (1,13,6) 0.170167 (1,13,8) -0.463130 (1,14,7) -0.767389
(1,13,8): (1,12,8) 0.730238 (1,13,7) 0.463130 (1,13,9) -0.430111 (1,14,8) -0.516441
(1,13,9): (1,12,9) 0.328182 (1,13,8) 0.430111 (1,13,10) -0.235338 (1,14,9) -0.301435
(1,13,10): (1,12,10) 0.160034 (1,13,9) 0.235338 (1,14,10) -0.192198
(1,14,1): (1,13,1) 8.293811E-02 (1,14,2) 9.227404E-02 (1,15,1) -5.229422E-02
(1,14,2): (1,13,2) 0.142840 (1,14,1) -9.227404E-02 (1,14,3) 0.182089 (1,15,2) -8.358394E-02
(1,14,3): (1,13,3) 0.280654 (1,14,2) -0.182089 (1,14,4) 0.245152 (1,15,3) -0.149909
(1,14,4): (1,13,4) 0.508228 (1,14,3) -0.245152 (1,14,5) 0.227897 (1,15,4) -0.247664
(1,14,5): (1,13,5) 0.764590 (1,14,4) -0.227897 (1,14,6) 9.094641E-02 (1,15,5) -0.345800
(1,14,6): (1,13,6) 0.855765 (1,14,5) -9.094641E-02 (1,14,7) -8.236631E-02 (1,15,6) -0.384063
(1,14,7): (1,13,7) 0.767389 (1,14,6) 8.236631E-02 (1,14,8) -0.212913 (1,15,7) -0.347730
(1,14,8): (1,13,8) 0.516441 (1,14,7) 0.212913 (1,14,9) -0.215286 (1,15,8) -0.253212
(1,14,9): (1,13,9) 0.301435 (1,14,8) 0.215286 (1,14,10) -0.126171 (1,15,9) -0.163390
(1,14,10): (1,13,10) 0.192198 (1,14,9) 0.126171 (1,15,10) -0.113691
(1,15,1): (1,14,1) 5.229422E-02 (1,15,2) 6.098163E-02
(1,15,2): (1,14,2) 8.358394E-02 (1,15,1) -6.098163E-02 (1,15,3) 0.115742
(1,15,3): (1,14,3) 0.149909 (1,15,2) -0.115742 (1,15,4) 0.147400
(1,15,4): (1,14,4) 0.247664 (1,15,3) -0.147400 (1,15,5) 0.129874
(1,15,5): (1,14,5) 0.345800 (1,15,4) -0.129874 (1,15,6) 5.279295E-02
(1,15,6): (1,14,6) 0.384063 (1,15,5) -5.279295E-02 (1,15,7) -4.613993E-02
(1,15,7): (1,14,7) 0.347730 (1,15,6) 4.613993E-02 (1,15,8) -0.118519
(1,15,8): (1,14,8) 0.253212 (1,15,7) 0.118519 (1,15,9) -0.125498
(1,15,9): (1,14,9) 0.163390 (1,15,8) 0.125498 (1,15,10) -7.649112E-02
(1,15,10): (1,14,10) 0.113691 (1,15,9) 7.649112E-02

 WEL PACKAGE (WEL-1) FLOW RATES   PERIOD      2   STEP       82
 ----------------------------------------------------------------------------------------
   NUMBER   CELLID                    RATE       NAME                                    
 ----------------------------------------------------------------------------------------
     1      (1,8,6)              -205.50561      WEL                                     
 ----------------------------------------------------------------------------------------




 DRN PACKAGE (DRN-0) FLOW RATES   PERIOD      2   STEP       82
 ----------------------------------------------------------------------------------------
   NUMBER   CELLID                    RATE       NAME                                    
 ----------------------------------------------------------------------------------------
     1      (1,1,1)               0.0000000      SURF                                    
     2      (1,1,2)               0.0000000      SURF                                    
     3      (1,1,3)               0.0000000      SURF                                    
     4      (1,1,4)               0.0000000      SURF                                    
     5      (1,1,5)               0.0000000      SURF                                    
     6      (1,1,6)               0.0000000      SURF                                    
     7      (1,1,7)               0.0000000      SURF                                    
     8      (1,1,8)               0.0000000      SURF                                    
     9      (1,1,9)               0.0000000      SURF                                    
     10     (1,1,10)              0.0000000      SURF                                    
     11     (1,2,1)               0.0000000      SURF                                    
     12     (1,2,2)               0.0000000      SURF                                    
     13     (1,2,3)               0.0000000      SURF                                    
     14     (1,2,4)               0.0000000      SURF                                    
     15     (1,2,5)               0.0000000      SURF                                    
     16     (1,2,6)               0.0000000      SURF                                    
     17     (1,2,7)               0.0000000      SURF                                    
     18     (1,2,8)               0.0000000      SURF                                    
     19     (1,2,9)               0.0000000      SURF                                    
     20     (1,2,10)              0.0000000      SURF                                    
     21     (1,3,1)               0.0000000      SURF                                    
     22     (1,3,2)               0.0000000      SURF                                    
     23     (1,3,3)               0.0000000      SURF                                    
     24     (1,3,4)               0.0000000      SURF                                    
     25     (1,3,5)               0.0000000      SURF                                    
     26     (1,3,6)               0.0000000      SURF                                    
     27     (1,3,7)               0.0000000      SURF                                    
     28     (1,3,8)               0.0000000      SURF                                    
     29     (1,3,9)               0.0000000      SURF                                    
     30     (1,3,10)              0.0000000      SURF                                    
     31     (1,4,1)               0.0000000      SURF                                    
     32     (1,4,2)               0.0000000      SURF                                    
     33     (1,4,3)               0.0000000      SURF                                    
     34     (1,4,4)               0.0000000      SURF                                    
     35     (1,4,5)               0.0000000      SURF                                    
     36     (1,4,6)               0.0000000      SURF                                    
     37     (1,4,7)               0.0000000      SURF                                    
     38     (1,4,8)               0.0000000      SURF                                    
     39     (1,4,9)               0.0000000      SURF                                    
     40     (1,4,10)              0.0000000      SURF                                    
     41     (1,5,1)               0.0000000      SURF                                    
     42     (1,5,2)               0.0000000      SURF                                    
     43     (1,5,3)               0.0000000      SURF                                    
     44     (1,5,4)               0.0000000      SURF                                    
     45     (1,5,5)               0.0000000      SURF                                    
     46     (1,5,6)               0.0000000      SURF                                    
     47     (1,5,7)               0.0000000      SURF                                    
     48     (1,5,8)               0.0000000      SURF                                    
     49     (1,5,9)               0.0000000      SURF                                    
     50     (1,5,10)              0.0000000      SURF                                    
     51     (1,6,1)               0.0000000      SURF                                    
     52     (1,6,2)               0.0000000      SURF                                    
     53     (1,6,3)               0.0000000      SURF                                    
     54     (1,6,4)               0.0000000      SURF                                    
     55     (1,6,5)               0.0000000      SURF                                    
     56     (1,6,6)               0.0000000      SURF                                    
     57     (1,6,7)              -3.13302735E-07 SURF                                    
     58     (1,6,8)               0.0000000      SURF                                    
     59     (1,6,9)               0.0000000      SURF                                    
     60     (1,6,10)              0.0000000      SURF                                    
     61     (1,7,1)               0.0000000      SURF                                    
     62     (1,7,2)               0.0000000      SURF                                    
     63     (1,7,3)               0.0000000      SURF                                    
     64     (1,7,4)               0.0000000      SURF                                    
     65     (1,7,5)               0.0000000      SURF                                    
     66     (1,7,6)               0.0000000      SURF                                    
     67     (1,7,7)               0.0000000      SURF                                    
     68     (1,7,8)               0.0000000      SURF                                    
     69     (1,7,9)               0.0000000      SURF                                    
     70     (1,7,10)              0.0000000      SURF                                    
     71     (1,8,1)               0.0000000      SURF                                    
     72     (1,8,2)               0.0000000      SURF                                    
     73     (1,8,3)               0.0000000      SURF                                    
     74     (1,8,4)               0.0000000      SURF                                    
     75     (1,8,5)               0.0000000      SURF                                    
     76     (1,8,6)               0.0000000      SURF                                    
     77     (1,8,7)               0.0000000      SURF                                    
     78     (1,8,8)               0.0000000      SURF                                    
     79     (1,8,9)               0.0000000      SURF                                    
     80     (1,8,10)              0.0000000      SURF                                    
     81     (1,9,1)               0.0000000      SURF                                    
     82     (1,9,2)               0.0000000      SURF                                    
     83     (1,9,3)               0.0000000      SURF                                    
     84     (1,9,4)               0.0000000      SURF                                    
     85     (1,9,5)               0.0000000      SURF                                    
     86     (1,9,6)               0.0000000      SURF                                    
     87     (1,9,7)               0.0000000      SURF                                    
     88     (1,9,8)               0.0000000      SURF                                    
     89     (1,9,9)               0.0000000      SURF                                    
     90     (1,9,10)              0.0000000      SURF                                    
     91     (1,10,1)              0.0000000      SURF                                    
     92     (1,10,2)              0.0000000      SURF                                    
     93     (1,10,3)              0.0000000      SURF                                    
     94     (1,10,4)              0.0000000      SURF                                    
     95     (1,10,5)              0.0000000      SURF                                    
     96     (1,10,6)              0.0000000      SURF                                    
     97     (1,10,7)              0.0000000      SURF                                    
     98     (1,10,8)              0.0000000      SURF                                    
     99     (1,10,9)              0.0000000      SURF                                    
    100     (1,10,10)             0.0000000      SURF                                    
    101     (1,11,1)              0.0000000      SURF                                    
    102     (1,11,2)              0.0000000      SURF                                    
    103     (1,11,3)              0.0000000      SURF                                    
    104     (1,11,4)              0.0000000      SURF                                    
    105     (1,11,5)              0.0000000      SURF                                    
    106     (1,11,6)              0.0000000      SURF                                    
    107     (1,11,7)              0.0000000      SURF                                    
    108     (1,11,8)              0.0000000      SURF                                    
    109     (1,11,9)              0.0000000      SURF                                    
    110     (1,11,10)             0.0000000      SURF                                    
    111     (1,12,1)              0.0000000      SURF                                    
    112     (1,12,2)              0.0000000      SURF                                    
    113     (1,12,3)              0.0000000      SURF                                    
    114     (1,12,4)              0.0000000      SURF                                    
    115     (1,12,5)              0.0000000      SURF                                    
    116     (1,12,6)              0.0000000      SURF                                    
    117     (1,12,7)              0.0000000      SURF                                    
    118     (1,12,8)              0.0000000      SURF                                    
    119     (1,12,9)              0.0000000      SURF                                    
    120     (1,12,10)             0.0000000      SURF                                    
    121     (1,13,1)              0.0000000      SURF                                    
    122     (1,13,2)              0.0000000      SURF                                    
    123     (1,13,3)              0.0000000      SURF                                    
    124     (1,13,4)              0.0000000      SURF                                    
    125     (1,13,5)              0.0000000      SURF                                    
    126     (1,13,6)              0.0000000      SURF                                    
    127     (1,13,7)              0.0000000      SURF                                    
    128     (1,13,8)              0.0000000      SURF                                    
    129     (1,13,9)              0.0000000      SURF                                    
    130     (1,13,10)             0.0000000      SURF                                    
    131     (1,14,1)              0.0000000      SURF                                    
    132     (1,14,2)              0.0000000      SURF                                    
    133     (1,14,3)              0.0000000      SURF                                    
    134     (1,14,4)              0.0000000      SURF                                    
    135     (1,14,5)              0.0000000      SURF                                    
    136     (1,14,6)              0.0000000      SURF                                    
    137     (1,14,7)              0.0000000      SURF                                    
    138     (1,14,8)              0.0000000      SURF                                    
    139     (1,14,9)              0.0000000      SURF                                    
    140     (1,14,10)             0.0000000      SURF                                    
    141     (1,15,1)              0.0000000      SURF                                    
    142     (1,15,2)              0.0000000      SURF                                    
    143     (1,15,3)              0.0000000      SURF                                    
    144     (1,15,4)              0.0000000      SURF                                    
    145     (1,15,5)              0.0000000      SURF                                    
    146     (1,15,6)              0.0000000      SURF                                    
    147     (1,15,7)              0.0000000      SURF                                    
    148     (1,15,8)              0.0000000      SURF                                    
    149     (1,15,9)              0.0000000      SURF                                    
    150     (1,15,10)             0.0000000      SURF                                    
 ----------------------------------------------------------------------------------------




 API PACKAGE (MAR) FLOW RATES   PERIOD      2   STEP       82
 -----------------------------------------------
   NUMBER   CELLID                    RATE      
 -----------------------------------------------
     1      (1,6,5)               35.800240     
     2      (1,6,6)               35.800240     
     3      (1,6,7)               35.800240     
     4      (1,10,5)              32.701629     
     5      (1,10,6)              32.701629     
     6      (1,10,7)              32.701629     
 -----------------------------------------------



1
  HEAD IN LAYER   1 AT END OF TIME STEP  82 IN STRESS PERIOD    2
  ---------------------------------------------------------------------------

            1           2           3           4           5           6           7           8           9          10
 ........................................................................................................................
   1   1.7287E-02  2.3830E-02  3.6149E-02  5.1701E-02  6.5324E-02  7.0880E-02  6.6134E-02  5.3843E-02  4.0776E-02  3.2781E-02
   2   2.2966E-02  3.2699E-02  5.1753E-02  7.7202E-02  0.1008      0.1102      0.1018      7.9959E-02  5.7837E-02  4.4832E-02
   3   3.1958E-02  4.7787E-02  8.0837E-02  0.1294      0.1790      0.1976      0.1803      0.1330      8.9152E-02  6.5103E-02
   4   3.8124E-02  6.0969E-02  0.1139      0.2047      0.3158      0.3504      0.3172      0.2089      0.1235      8.2164E-02
   5   3.0993E-02  5.5026E-02  0.1227      0.2776      0.5479      0.5918      0.5491      0.2808      0.1303      7.2594E-02
   6   8.5532E-04  5.9370E-03  4.4319E-02  0.2347      0.9998      0.9253       1.000      0.2350      4.4351E-02  5.6253E-03
   7  -4.5798E-02 -9.0785E-02 -0.2061     -0.4519     -0.9631      -2.163     -0.9640     -0.4554     -0.2169     -0.1208    
   8  -7.0799E-02 -0.1469     -0.3685     -0.9647      -2.719      -9.250      -2.720     -0.9703     -0.3853     -0.1933    
   9  -4.8003E-02 -9.3948E-02 -0.2126     -0.4686      -1.003      -2.211      -1.004     -0.4723     -0.2240     -0.1250    
  10  -2.9884E-03  3.7252E-04  3.2272E-02  0.1997      0.8919      0.8025      0.8919      0.1995      3.1320E-02 -1.6776E-03
  11   2.6558E-02  4.9222E-02  0.1128      0.2570      0.5060      0.5434      0.5069      0.2596      0.1192      6.4847E-02
  12   3.3895E-02  5.5807E-02  0.1065      0.1932      0.2981      0.3304      0.2993      0.1967      0.1151      7.5175E-02
  13   2.8376E-02  4.3529E-02  7.5285E-02  0.1220      0.1695      0.1874      0.1706      0.1251      8.2632E-02  5.9291E-02
  14   2.0106E-02  2.9307E-02  4.7429E-02  7.1770E-02  9.4347E-02  0.1033      9.5196E-02  7.4105E-02  5.2735E-02  4.0184E-02
  15   1.4887E-02  2.0973E-02  3.2509E-02  4.7180E-02  6.0090E-02  6.5335E-02  6.0751E-02  4.8971E-02  3.6482E-02  2.8861E-02

 HEAD WILL BE SAVED ON UNIT 1100 AT END OF TIME STEP   82, STRESS PERIOD    2


  VOLUME BUDGET FOR ENTIRE MODEL AT END OF TIME STEP   82, STRESS PERIOD   2
  ---------------------------------------------------------------------------------------------------

     CUMULATIVE VOLUME      L**3       RATES FOR THIS TIME STEP      L**3/T          PACKAGE NAME    
     ------------------                 ------------------------                     ----------------

           IN:                                      IN:
           ---                                      ---
              STO-SS =          24.9195                STO-SS =       8.3649E-03     STORAGE                          
              STO-SY =       61425.1994                STO-SY =          17.3597     STORAGE                          
                 WEL =           0.0000                   WEL =           0.0000     WEL-1                            
                 DRN =           0.0000                   DRN =           0.0000     DRN-0                            
                 API =      167764.0242                   API =         205.5056     MAR                              
                 CHD =       2.0279E-08                   CHD =           0.0000     CHD_0                            

            TOTAL IN =      229214.1431              TOTAL IN =         222.8737

          OUT:                                     OUT:
          ----                                     ----
              STO-SS =          21.4271                STO-SS =       8.7826E-03     STORAGE                          
              STO-SY =       41859.8853                STO-SY =          17.3593     STORAGE                          
                 WEL =      187332.8305                   WEL =         205.5056     WEL-1                            
                 DRN =       2.7283E-04                   DRN =       3.1330E-07     DRN-0                            
                 API =           0.0000                   API =           0.0000     MAR                              
                 CHD =       2.0705E-08                   CHD =           0.0000     CHD_0                            

           TOTAL OUT =      229214.1431             TOTAL OUT =         222.8737

            IN - OUT =      -9.9899E-07              IN - OUT =       7.5420E-10

 PERCENT DISCREPANCY =          -0.00     PERCENT DISCREPANCY =           0.00




         TIME SUMMARY AT END OF TIME STEP   82 IN STRESS PERIOD    2
                    SECONDS     MINUTES      HOURS       DAYS        YEARS
                    -----------------------------------------------------------
   TIME STEP LENGTH 8.64000E+05  14400.      240.00      10.000     2.73785E-02
 STRESS PERIOD TIME 7.08480E+07 1.18080E+06  19680.      820.00      2.2450    
         TOTAL TIME 7.09344E+07 1.18224E+06  19704.      821.00      2.2478    


end timestep


start timestep kper="2" kstp="83" mode="normal"

 UBDSV1 SAVING           STO-SS ON UNIT   1099 AT TIME STEP     83, STRESS PERIOD      2
 UBDSV1 SAVING           STO-SY ON UNIT   1099 AT TIME STEP     83, STRESS PERIOD      2
 UBDSV1 SAVING     FLOW-JA-FACE ON UNIT   1099 AT TIME STEP     83, STRESS PERIOD      2
 UBDSV06 SAVING       DATA-SPDIS IN MODEL GWF              PACKAGE NPF             CONNECTED TO MODEL GWF              PACKAGE NPF              ON UNIT   1099 AT TIME STEP     83, STRESS PERIOD      2
 UBDSV06 SAVING              WEL IN MODEL GWF              PACKAGE GWF             CONNECTED TO MODEL GWF              PACKAGE WEL-1            ON UNIT   1099 AT TIME STEP     83, STRESS PERIOD      2
 UBDSV06 SAVING              DRN IN MODEL GWF              PACKAGE GWF             CONNECTED TO MODEL GWF              PACKAGE DRN-0            ON UNIT   1099 AT TIME STEP     83, STRESS PERIOD      2
 UBDSV06 SAVING              API IN MODEL GWF              PACKAGE GWF             CONNECTED TO MODEL GWF              PACKAGE MAR              ON UNIT   1099 AT TIME STEP     83, STRESS PERIOD      2
 UBDSV06 SAVING              CHD IN MODEL GWF              PACKAGE GWF             CONNECTED TO MODEL GWF              PACKAGE CHD_0            ON UNIT   1099 AT TIME STEP     83, STRESS PERIOD      2

    CALCULATED INTERCELL FLOW FOR PERIOD 2 STEP 83
(1,1,1): (1,1,2) 6.680265E-02 (1,2,1) 5.730463E-02
(1,1,2): (1,1,1) -6.680265E-02 (1,1,3) 0.125756 (1,2,2) 8.941058E-02
(1,1,3): (1,1,2) -0.125756 (1,1,4) 0.158735 (1,2,3) 0.157388
(1,1,4): (1,1,3) -0.158735 (1,1,5) 0.139081 (1,2,4) 0.257709
(1,1,5): (1,1,4) -0.139081 (1,1,6) 5.679929E-02 (1,2,5) 0.358843
(1,1,6): (1,1,5) -5.679929E-02 (1,1,7) -4.826295E-02 (1,2,6) 0.398413
(1,1,7): (1,1,6) 4.826295E-02 (1,1,8) -0.125144 (1,2,7) 0.361114
(1,1,8): (1,1,7) 0.125144 (1,1,9) -0.133011 (1,2,8) 0.264035
(1,1,9): (1,1,8) 0.133011 (1,1,10) -8.133766E-02 (1,2,9) 0.172236
(1,1,10): (1,1,9) 8.133766E-02 (1,2,10) 0.121617
(1,2,1): (1,1,1) -5.730463E-02 (1,2,2) 9.891163E-02 (1,3,1) 9.013185E-02
(1,2,2): (1,1,2) -8.941058E-02 (1,2,1) -9.891163E-02 (1,2,3) 0.193757 (1,3,2) 0.151474
(1,2,3): (1,1,3) -0.157388 (1,2,2) -0.193757 (1,2,4) 0.259057 (1,3,3) 0.293050
(1,2,4): (1,1,4) -0.257709 (1,2,3) -0.259057 (1,2,5) 0.240097 (1,3,4) 0.528500
(1,2,5): (1,1,5) -0.358843 (1,2,4) -0.240097 (1,2,6) 9.625365E-02 (1,3,5) 0.796366
(1,2,6): (1,1,6) -0.398413 (1,2,5) -9.625365E-02 (1,2,7) -8.544820E-02 (1,3,6) 0.892241
(1,2,7): (1,1,7) -0.361114 (1,2,6) 8.544820E-02 (1,2,8) -0.222093 (1,3,7) 0.799669
(1,2,8): (1,1,8) -0.264035 (1,2,7) 0.222093 (1,2,9) -0.224774 (1,3,8) 0.537833
(1,2,9): (1,1,9) -0.172236 (1,2,8) 0.224774 (1,2,10) -0.131936 (1,3,9) 0.315761
(1,2,10): (1,1,10) -0.121617 (1,2,9) 0.131936 (1,3,10) 0.203791
(1,3,1): (1,2,1) -9.013185E-02 (1,3,2) 0.160259 (1,4,1) 6.011945E-02
(1,3,2): (1,2,2) -0.151474 (1,3,1) -0.160259 (1,3,3) 0.335392 (1,4,2) 0.130457
(1,3,3): (1,2,3) -0.293050 (1,3,2) -0.335392 (1,3,4) 0.494430 (1,4,3) 0.331501
(1,3,4): (1,2,4) -0.528500 (1,3,3) -0.494430 (1,3,5) 0.507222 (1,4,4) 0.766137
(1,3,5): (1,2,5) -0.796366 (1,3,4) -0.507222 (1,3,6) 0.191493 (1,4,5) 1.40859
(1,3,6): (1,2,6) -0.892241 (1,3,5) -0.191493 (1,3,7) -0.177394 (1,4,6) 1.57848
(1,3,7): (1,2,7) -0.799669 (1,3,6) 0.177394 (1,3,8) -0.483137 (1,4,7) 1.41024
(1,3,8): (1,2,8) -0.537833 (1,3,7) 0.483137 (1,3,9) -0.446651 (1,4,8) 0.770978
(1,3,9): (1,2,9) -0.315761 (1,3,8) 0.446651 (1,3,10) -0.243826 (1,4,9) 0.344943
(1,3,10): (1,2,10) -0.203791 (1,3,9) 0.243826 (1,4,10) 0.168921
(1,4,1): (1,3,1) -6.011945E-02 (1,4,2) 0.230666 (1,5,1) -7.588233E-02
(1,4,2): (1,3,2) -0.130457 (1,4,1) -0.230666 (1,4,3) 0.536838 (1,5,2) -6.495012E-02
(1,4,3): (1,3,3) -0.331501 (1,4,2) -0.536838 (1,4,4) 0.929745 (1,5,3) 8.344117E-02
(1,4,4): (1,3,4) -0.766137 (1,4,3) -0.929745 (1,4,5) 1.14812 (1,5,4) 0.742699
(1,4,5): (1,3,5) -1.40859 (1,4,4) -1.14812 (1,4,6) 0.359510 (1,5,5) 2.44294
(1,4,6): (1,3,6) -1.57848 (1,4,5) -0.359510 (1,4,7) -0.343750 (1,5,6) 2.55181
(1,4,7): (1,3,7) -1.41024 (1,4,6) 0.343750 (1,4,8) -1.12068 (1,5,7) 2.43944
(1,4,8): (1,3,8) -0.770978 (1,4,7) 1.12068 (1,4,9) -0.873100 (1,5,8) 0.732694
(1,4,9): (1,3,9) -0.344943 (1,4,8) 0.873100 (1,4,10) -0.419976 (1,5,9) 6.091542E-02
(1,4,10): (1,3,10) -0.168921 (1,4,9) 0.419976 (1,5,10) -0.103706
(1,5,1): (1,4,1) 7.588233E-02 (1,5,2) 0.241617 (1,6,1) -0.308491
(1,5,2): (1,4,2) 6.495012E-02 (1,5,1) -0.241617 (1,5,3) 0.686062 (1,6,2) -0.500983
(1,5,3): (1,4,3) -8.344117E-02 (1,5,2) -0.686062 (1,5,4) 1.59431 (1,6,3) -0.802730
(1,5,4): (1,4,4) -0.742699 (1,5,3) -1.59431 (1,5,5) 2.85458 (1,6,4) -0.450726
(1,5,5): (1,4,5) -2.44294 (1,5,4) -2.85458 (1,5,6) 0.466546 (1,6,5) 4.96328
(1,5,6): (1,4,6) -2.55181 (1,5,5) -0.466546 (1,5,7) -0.454209 (1,6,6) 3.63793
(1,5,7): (1,4,7) -2.43944 (1,5,6) 0.454209 (1,5,8) -2.83340 (1,6,7) 4.95289
(1,5,8): (1,4,8) -0.732694 (1,5,7) 2.83340 (1,5,9) -1.55007 (1,6,8) -0.481043
(1,5,9): (1,4,9) -6.091542E-02 (1,5,8) 1.55007 (1,5,10) -0.585336 (1,6,9) -0.881191
(1,5,10): (1,4,10) 0.103706 (1,5,9) 0.585336 (1,6,10) -0.684846
(1,6,1): (1,5,1) 0.308491 (1,6,2) 4.961676E-02 (1,7,1) -0.472299
(1,6,2): (1,5,2) 0.500983 (1,6,1) -4.961676E-02 (1,6,3) 0.384655 (1,7,2) -0.974737
(1,6,3): (1,5,3) 0.802730 (1,6,2) -0.384655 (1,6,4) 1.95026 (1,7,3) -2.52364
(1,6,4): (1,5,4) 0.450726 (1,6,3) -1.95026 (1,6,5) 8.42234 (1,7,4) -7.03804
(1,6,5): (1,5,5) -4.96328 (1,6,4) -8.42234 (1,6,6) -0.816166 (1,7,5) -21.6039
(1,6,6): (1,5,6) -3.63793 (1,6,5) 0.816166 (1,6,7) 0.818507 (1,7,6) -33.7492
(1,6,7): (1,5,7) -4.95289 (1,6,6) -0.818507 (1,6,8) -8.42189 (1,7,7) -21.6166
(1,6,8): (1,5,8) 0.481043 (1,6,7) 8.42189 (1,6,9) -1.95439 (1,7,8) -7.07740
(1,6,9): (1,5,9) 0.881191 (1,6,8) 1.95439 (1,6,10) -0.389545 (1,7,9) -2.63422
(1,6,10): (1,5,10) 0.684846 (1,6,9) 0.389545 (1,7,10) -1.27475
(1,7,1): (1,6,1) 0.472299 (1,7,2) -0.450227 (1,8,1) -0.251277
(1,7,2): (1,6,2) 0.974737 (1,7,1) 0.450227 (1,7,3) -1.14483 (1,8,2) -0.559103
(1,7,3): (1,6,3) 2.52364 (1,7,2) 1.14483 (1,7,4) -2.40763 (1,8,3) -1.59585
(1,7,4): (1,6,4) 7.03804 (1,7,3) 2.40763 (1,7,5) -4.87476 (1,8,4) -4.90150
(1,7,5): (1,6,5) 21.6039 (1,7,4) 4.87476 (1,7,6) -10.8355 (1,8,5) -15.8713
(1,7,6): (1,6,6) 33.7492 (1,7,5) 10.8355 (1,7,7) 10.8262 (1,8,6) -55.5342
(1,7,7): (1,6,7) 21.6166 (1,7,6) -10.8262 (1,7,8) 4.84766 (1,8,7) -15.8768
(1,7,8): (1,6,8) 7.07740 (1,7,7) -4.84766 (1,7,9) 2.33070 (1,8,8) -4.92063
(1,7,9): (1,6,9) 2.63422 (1,7,8) -2.33070 (1,7,10) 0.949017 (1,8,9) -1.65226
(1,7,10): (1,6,10) 1.27475 (1,7,9) -0.949017 (1,8,10) -0.720745
(1,8,1): (1,7,1) 0.251277 (1,8,2) -0.758676 (1,9,1) 0.229054
(1,8,2): (1,7,2) 0.559103 (1,8,1) 0.758676 (1,8,3) -2.18787 (1,9,2) 0.526718
(1,8,3): (1,7,3) 1.59585 (1,8,2) 2.18787 (1,8,4) -5.74233 (1,9,3) 1.52804
(1,8,4): (1,7,4) 4.90150 (1,8,3) 5.74233 (1,8,5) -15.8411 (1,9,4) 4.72640
(1,8,5): (1,7,5) 15.8713 (1,8,4) 15.8411 (1,8,6) -47.5278 (1,9,5) 15.4237
(1,8,6): (1,7,6) 55.5342 (1,8,5) 47.5278 (1,8,7) 47.5045 (1,9,6) 54.7835
(1,8,7): (1,7,7) 15.8768 (1,8,6) -47.5045 (1,8,8) 15.7943 (1,9,7) 15.4275
(1,8,8): (1,7,8) 4.92063 (1,8,7) -15.7943 (1,8,9) 5.62312 (1,9,8) 4.74232
(1,8,9): (1,7,9) 1.65226 (1,8,8) -5.62312 (1,8,10) 1.88275 (1,9,9) 1.57869
(1,8,10): (1,7,10) 0.720745 (1,8,9) -1.88275 (1,9,10) 0.678235
(1,9,1): (1,8,1) -0.229054 (1,9,2) -0.460312 (1,10,1) 0.455583
(1,9,2): (1,8,2) -0.526718 (1,9,1) 0.460312 (1,9,3) -1.17976 (1,10,2) 0.949650
(1,9,3): (1,8,3) -1.52804 (1,9,2) 1.17976 (1,9,4) -2.50988 (1,10,3) 2.46311
(1,9,4): (1,8,4) -4.72640 (1,9,3) 2.50988 (1,9,5) -5.09649 (1,10,4) 6.82012
(1,9,5): (1,8,5) -15.4237 (1,9,4) 5.09649 (1,9,6) -10.8650 (1,10,5) 20.6292
(1,9,6): (1,8,6) -54.7835 (1,9,5) 10.8650 (1,9,7) 10.8542 (1,10,6) 32.5362
(1,9,7): (1,8,7) -15.4275 (1,9,6) -10.8542 (1,9,8) 5.06749 (1,10,7) 20.6407
(1,9,8): (1,8,8) -4.74232 (1,9,7) -5.06749 (1,9,9) 2.43018 (1,10,8) 6.85700
(1,9,9): (1,8,9) -1.57869 (1,9,8) -2.43018 (1,9,10) 0.979463 (1,10,9) 2.56926
(1,9,10): (1,8,10) -0.678235 (1,9,9) -0.979463 (1,10,10) 1.24188
(1,10,1): (1,9,1) -0.455583 (1,10,2) 3.135970E-02 (1,11,1) 0.302478
(1,10,2): (1,9,2) -0.949650 (1,10,1) -3.135970E-02 (1,10,3) 0.315644 (1,11,2) 0.498643
(1,10,3): (1,9,3) -2.46311 (1,10,2) -0.315644 (1,10,4) 1.70044 (1,11,3) 0.824984
(1,10,4): (1,9,4) -6.82012 (1,10,3) -1.70044 (1,10,5) 7.52329 (1,11,4) 0.602160
(1,10,5): (1,9,5) -20.6292 (1,10,4) -7.52329 (1,10,6) -0.976512 (1,11,5) -4.17803
(1,10,6): (1,9,6) -32.5362 (1,10,5) 0.976512 (1,10,7) 0.976509 (1,11,6) -2.77235
(1,10,7): (1,9,7) -20.6407 (1,10,6) -0.976509 (1,10,8) -7.52601 (1,11,7) -4.16822
(1,10,8): (1,9,8) -6.85700 (1,10,7) 7.52601 (1,10,9) -1.70926 (1,11,8) 0.631315
(1,10,9): (1,9,9) -2.56926 (1,10,8) 1.70926 (1,10,10) -0.328286 (1,11,9) 0.901524
(1,10,10): (1,9,10) -1.24188 (1,10,9) 0.328286 (1,11,10) 0.680294
(1,11,1): (1,10,1) -0.302478 (1,11,2) 0.227000 (1,12,1) 7.797245E-02
(1,11,2): (1,10,2) -0.498643 (1,11,1) -0.227000 (1,11,3) 0.641404 (1,12,2) 7.185921E-02
(1,11,3): (1,10,3) -0.824984 (1,11,2) -0.641404 (1,11,4) 1.47567 (1,12,3) -5.538916E-02
(1,11,4): (1,10,4) -0.602160 (1,11,3) -1.47567 (1,11,5) 2.61062 (1,12,4) -0.642676
(1,11,5): (1,10,5) 4.17803 (1,11,4) -2.61062 (1,11,6) 0.393228 (1,12,5) -2.16790
(1,11,6): (1,10,6) 2.77235 (1,11,5) -0.393228 (1,11,7) -0.383736 (1,12,6) -2.22835
(1,11,7): (1,10,7) 4.16822 (1,11,6) 0.383736 (1,11,8) -2.59323 (1,12,7) -2.16433
(1,11,8): (1,10,8) -0.631315 (1,11,7) 2.59323 (1,11,9) -1.43688 (1,12,8) -0.632553
(1,11,9): (1,10,9) -0.901524 (1,11,8) 1.43688 (1,11,10) -0.548767 (1,12,9) -3.256557E-02
(1,11,10): (1,10,10) -0.680294 (1,11,9) 0.548767 (1,12,10) 0.111860
(1,12,1): (1,11,1) -7.797245E-02 (1,12,2) 0.220877 (1,13,1) -5.363409E-02
(1,12,2): (1,11,2) -7.185921E-02 (1,12,1) -0.220877 (1,12,3) 0.513475 (1,13,2) -0.121102
(1,12,3): (1,11,3) 5.538916E-02 (1,12,2) -0.513475 (1,12,4) 0.883740 (1,13,3) -0.312309
(1,12,4): (1,11,4) 0.642676 (1,12,3) -0.883740 (1,12,5) 1.07934 (1,13,4) -0.720747
(1,12,5): (1,11,5) 2.16790 (1,12,4) -1.07934 (1,12,6) 0.333651 (1,13,5) -1.31642
(1,12,6): (1,11,6) 2.22835 (1,12,5) -0.333651 (1,12,7) -0.320658 (1,13,6) -1.46947
(1,12,7): (1,11,7) 2.16433 (1,12,6) 0.320658 (1,12,8) -1.05556 (1,13,7) -1.31764
(1,12,8): (1,11,8) 0.632553 (1,12,7) 1.05556 (1,12,9) -0.832314 (1,13,8) -0.724651
(1,12,9): (1,11,9) 3.256557E-02 (1,12,8) 0.832314 (1,12,10) -0.403733 (1,13,9) -0.324102
(1,12,10): (1,11,10) -0.111860 (1,12,9) 0.403733 (1,13,10) -0.156731
(1,13,1): (1,12,1) 5.363409E-02 (1,13,2) 0.153343 (1,14,1) -8.295528E-02
(1,13,2): (1,12,2) 0.121102 (1,13,1) -0.153343 (1,13,3) 0.321893 (1,14,2) -0.142727
(1,13,3): (1,12,3) 0.312309 (1,13,2) -0.321893 (1,13,4) 0.474666 (1,14,3) -0.280262
(1,13,4): (1,12,4) 0.720747 (1,13,3) -0.474666 (1,13,5) 0.484985 (1,14,4) -0.507390
(1,13,5): (1,12,5) 1.31642 (1,13,4) -0.484985 (1,13,6) 0.182185 (1,14,5) -0.763239
(1,13,6): (1,12,6) 1.46947 (1,13,5) -0.182185 (1,13,7) -0.170424 (1,14,6) -0.854228
(1,13,7): (1,12,7) 1.31764 (1,13,6) 0.170424 (1,13,8) -0.464017 (1,14,7) -0.766052
(1,13,8): (1,12,8) 0.724651 (1,13,7) 0.464017 (1,13,9) -0.431353 (1,14,8) -0.515621
(1,13,9): (1,12,9) 0.324102 (1,13,8) 0.431353 (1,13,10) -0.236232 (1,14,9) -0.301041
(1,13,10): (1,12,10) 0.156731 (1,13,9) 0.236232 (1,14,10) -0.192016
(1,14,1): (1,13,1) 8.295528E-02 (1,14,2) 9.356456E-02 (1,15,1) -5.273891E-02
(1,14,2): (1,13,2) 0.142727 (1,14,1) -9.356456E-02 (1,14,3) 0.184301 (1,15,2) -8.407393E-02
(1,14,3): (1,13,3) 0.280262 (1,14,2) -0.184301 (1,14,4) 0.247610 (1,15,3) -0.150462
(1,14,4): (1,13,4) 0.507390 (1,14,3) -0.247610 (1,14,5) 0.229819 (1,15,4) -0.248253
(1,14,5): (1,13,5) 0.763239 (1,14,4) -0.229819 (1,14,6) 9.177606E-02 (1,15,5) -0.346383
(1,14,6): (1,13,6) 0.854228 (1,14,5) -9.177606E-02 (1,14,7) -8.282078E-02 (1,15,6) -0.384652
(1,14,7): (1,13,7) 0.766052 (1,14,6) 8.282078E-02 (1,14,8) -0.214311 (1,15,7) -0.348345
(1,14,8): (1,13,8) 0.515621 (1,14,7) 0.214311 (1,14,9) -0.216948 (1,15,8) -0.253871
(1,14,9): (1,13,9) 0.301041 (1,14,8) 0.216948 (1,14,10) -0.127277 (1,15,9) -0.164062
(1,14,10): (1,13,10) 0.192016 (1,14,9) 0.127277 (1,15,10) -0.114355
(1,15,1): (1,14,1) 5.273891E-02 (1,15,2) 6.222659E-02
(1,15,2): (1,14,2) 8.407393E-02 (1,15,1) -6.222659E-02 (1,15,3) 0.117891
(1,15,3): (1,14,3) 0.150462 (1,15,2) -0.117891 (1,15,4) 0.149819
(1,15,4): (1,14,4) 0.248253 (1,15,3) -0.149819 (1,15,5) 0.131800
(1,15,5): (1,14,5) 0.346383 (1,15,4) -0.131800 (1,15,6) 5.361623E-02
(1,15,6): (1,14,6) 0.384652 (1,15,5) -5.361623E-02 (1,15,7) -4.661993E-02
(1,15,7): (1,14,7) 0.348345 (1,15,6) 4.661993E-02 (1,15,8) -0.119960
(1,15,8): (1,14,8) 0.253871 (1,15,7) 0.119960 (1,15,9) -0.127171
(1,15,9): (1,14,9) 0.164062 (1,15,8) 0.127171 (1,15,10) -7.758790E-02
(1,15,10): (1,14,10) 0.114355 (1,15,9) 7.758790E-02

 WEL PACKAGE (WEL-1) FLOW RATES   PERIOD      2   STEP       83
 ----------------------------------------------------------------------------------------
   NUMBER   CELLID                    RATE       NAME                                    
 ----------------------------------------------------------------------------------------
     1      (1,8,6)              -205.40992      WEL                                     
 ----------------------------------------------------------------------------------------




 DRN PACKAGE (DRN-0) FLOW RATES   PERIOD      2   STEP       83
 ----------------------------------------------------------------------------------------
   NUMBER   CELLID                    RATE       NAME                                    
 ----------------------------------------------------------------------------------------
     1      (1,1,1)               0.0000000      SURF                                    
     2      (1,1,2)               0.0000000      SURF                                    
     3      (1,1,3)               0.0000000      SURF                                    
     4      (1,1,4)               0.0000000      SURF                                    
     5      (1,1,5)               0.0000000      SURF                                    
     6      (1,1,6)               0.0000000      SURF                                    
     7      (1,1,7)               0.0000000      SURF                                    
     8      (1,1,8)               0.0000000      SURF                                    
     9      (1,1,9)               0.0000000      SURF                                    
     10     (1,1,10)              0.0000000      SURF                                    
     11     (1,2,1)               0.0000000      SURF                                    
     12     (1,2,2)               0.0000000      SURF                                    
     13     (1,2,3)               0.0000000      SURF                                    
     14     (1,2,4)               0.0000000      SURF                                    
     15     (1,2,5)               0.0000000      SURF                                    
     16     (1,2,6)               0.0000000      SURF                                    
     17     (1,2,7)               0.0000000      SURF                                    
     18     (1,2,8)               0.0000000      SURF                                    
     19     (1,2,9)               0.0000000      SURF                                    
     20     (1,2,10)              0.0000000      SURF                                    
     21     (1,3,1)               0.0000000      SURF                                    
     22     (1,3,2)               0.0000000      SURF                                    
     23     (1,3,3)               0.0000000      SURF                                    
     24     (1,3,4)               0.0000000      SURF                                    
     25     (1,3,5)               0.0000000      SURF                                    
     26     (1,3,6)               0.0000000      SURF                                    
     27     (1,3,7)               0.0000000      SURF                                    
     28     (1,3,8)               0.0000000      SURF                                    
     29     (1,3,9)               0.0000000      SURF                                    
     30     (1,3,10)              0.0000000      SURF                                    
     31     (1,4,1)               0.0000000      SURF                                    
     32     (1,4,2)               0.0000000      SURF                                    
     33     (1,4,3)               0.0000000      SURF                                    
     34     (1,4,4)               0.0000000      SURF                                    
     35     (1,4,5)               0.0000000      SURF                                    
     36     (1,4,6)               0.0000000      SURF                                    
     37     (1,4,7)               0.0000000      SURF                                    
     38     (1,4,8)               0.0000000      SURF                                    
     39     (1,4,9)               0.0000000      SURF                                    
     40     (1,4,10)              0.0000000      SURF                                    
     41     (1,5,1)               0.0000000      SURF                                    
     42     (1,5,2)               0.0000000      SURF                                    
     43     (1,5,3)               0.0000000      SURF                                    
     44     (1,5,4)               0.0000000      SURF                                    
     45     (1,5,5)               0.0000000      SURF                                    
     46     (1,5,6)               0.0000000      SURF                                    
     47     (1,5,7)               0.0000000      SURF                                    
     48     (1,5,8)               0.0000000      SURF                                    
     49     (1,5,9)               0.0000000      SURF                                    
     50     (1,5,10)              0.0000000      SURF                                    
     51     (1,6,1)               0.0000000      SURF                                    
     52     (1,6,2)               0.0000000      SURF                                    
     53     (1,6,3)               0.0000000      SURF                                    
     54     (1,6,4)               0.0000000      SURF                                    
     55     (1,6,5)               0.0000000      SURF                                    
     56     (1,6,6)               0.0000000      SURF                                    
     57     (1,6,7)              -3.12458724E-07 SURF                                    
     58     (1,6,8)               0.0000000      SURF                                    
     59     (1,6,9)               0.0000000      SURF                                    
     60     (1,6,10)              0.0000000      SURF                                    
     61     (1,7,1)               0.0000000      SURF                                    
     62     (1,7,2)               0.0000000      SURF                                    
     63     (1,7,3)               0.0000000      SURF                                    
     64     (1,7,4)               0.0000000      SURF                                    
     65     (1,7,5)               0.0000000      SURF                                    
     66     (1,7,6)               0.0000000      SURF                                    
     67     (1,7,7)               0.0000000      SURF                                    
     68     (1,7,8)               0.0000000      SURF                                    
     69     (1,7,9)               0.0000000      SURF                                    
     70     (1,7,10)              0.0000000      SURF                                    
     71     (1,8,1)               0.0000000      SURF                                    
     72     (1,8,2)               0.0000000      SURF                                    
     73     (1,8,3)               0.0000000      SURF                                    
     74     (1,8,4)               0.0000000      SURF                                    
     75     (1,8,5)               0.0000000      SURF                                    
     76     (1,8,6)               0.0000000      SURF                                    
     77     (1,8,7)               0.0000000      SURF                                    
     78     (1,8,8)               0.0000000      SURF                                    
     79     (1,8,9)               0.0000000      SURF                                    
     80     (1,8,10)              0.0000000      SURF                                    
     81     (1,9,1)               0.0000000      SURF                                    
     82     (1,9,2)               0.0000000      SURF                                    
     83     (1,9,3)               0.0000000      SURF                                    
     84     (1,9,4)               0.0000000      SURF                                    
     85     (1,9,5)               0.0000000      SURF                                    
     86     (1,9,6)               0.0000000      SURF                                    
     87     (1,9,7)               0.0000000      SURF                                    
     88     (1,9,8)               0.0000000      SURF                                    
     89     (1,9,9)               0.0000000      SURF                                    
     90     (1,9,10)              0.0000000      SURF                                    
     91     (1,10,1)              0.0000000      SURF                                    
     92     (1,10,2)              0.0000000      SURF                                    
     93     (1,10,3)              0.0000000      SURF                                    
     94     (1,10,4)              0.0000000      SURF                                    
     95     (1,10,5)              0.0000000      SURF                                    
     96     (1,10,6)              0.0000000      SURF                                    
     97     (1,10,7)              0.0000000      SURF                                    
     98     (1,10,8)              0.0000000      SURF                                    
     99     (1,10,9)              0.0000000      SURF                                    
    100     (1,10,10)             0.0000000      SURF                                    
    101     (1,11,1)              0.0000000      SURF                                    
    102     (1,11,2)              0.0000000      SURF                                    
    103     (1,11,3)              0.0000000      SURF                                    
    104     (1,11,4)              0.0000000      SURF                                    
    105     (1,11,5)              0.0000000      SURF                                    
    106     (1,11,6)              0.0000000      SURF                                    
    107     (1,11,7)              0.0000000      SURF                                    
    108     (1,11,8)              0.0000000      SURF                                    
    109     (1,11,9)              0.0000000      SURF                                    
    110     (1,11,10)             0.0000000      SURF                                    
    111     (1,12,1)              0.0000000      SURF                                    
    112     (1,12,2)              0.0000000      SURF                                    
    113     (1,12,3)              0.0000000      SURF                                    
    114     (1,12,4)              0.0000000      SURF                                    
    115     (1,12,5)              0.0000000      SURF                                    
    116     (1,12,6)              0.0000000      SURF                                    
    117     (1,12,7)              0.0000000      SURF                                    
    118     (1,12,8)              0.0000000      SURF                                    
    119     (1,12,9)              0.0000000      SURF                                    
    120     (1,12,10)             0.0000000      SURF                                    
    121     (1,13,1)              0.0000000      SURF                                    
    122     (1,13,2)              0.0000000      SURF                                    
    123     (1,13,3)              0.0000000      SURF                                    
    124     (1,13,4)              0.0000000      SURF                                    
    125     (1,13,5)              0.0000000      SURF                                    
    126     (1,13,6)              0.0000000      SURF                                    
    127     (1,13,7)              0.0000000      SURF                                    
    128     (1,13,8)              0.0000000      SURF                                    
    129     (1,13,9)              0.0000000      SURF                                    
    130     (1,13,10)             0.0000000      SURF                                    
    131     (1,14,1)              0.0000000      SURF                                    
    132     (1,14,2)              0.0000000      SURF                                    
    133     (1,14,3)              0.0000000      SURF                                    
    134     (1,14,4)              0.0000000      SURF                                    
    135     (1,14,5)              0.0000000      SURF                                    
    136     (1,14,6)              0.0000000      SURF                                    
    137     (1,14,7)              0.0000000      SURF                                    
    138     (1,14,8)              0.0000000      SURF                                    
    139     (1,14,9)              0.0000000      SURF                                    
    140     (1,14,10)             0.0000000      SURF                                    
    141     (1,15,1)              0.0000000      SURF                                    
    142     (1,15,2)              0.0000000      SURF                                    
    143     (1,15,3)              0.0000000      SURF                                    
    144     (1,15,4)              0.0000000      SURF                                    
    145     (1,15,5)              0.0000000      SURF                                    
    146     (1,15,6)              0.0000000      SURF                                    
    147     (1,15,7)              0.0000000      SURF                                    
    148     (1,15,8)              0.0000000      SURF                                    
    149     (1,15,9)              0.0000000      SURF                                    
    150     (1,15,10)             0.0000000      SURF                                    
 ----------------------------------------------------------------------------------------




 API PACKAGE (MAR) FLOW RATES   PERIOD      2   STEP       83
 -----------------------------------------------
   NUMBER   CELLID                    RATE      
 -----------------------------------------------
     1      (1,6,5)               35.809906     
     2      (1,6,6)               35.809906     
     3      (1,6,7)               35.809906     
     4      (1,10,5)              32.660068     
     5      (1,10,6)              32.660068     
     6      (1,10,7)              32.660068     
 -----------------------------------------------



1
  HEAD IN LAYER   1 AT END OF TIME STEP  83 IN STRESS PERIOD    2
  ---------------------------------------------------------------------------

            1           2           3           4           5           6           7           8           9          10
 ........................................................................................................................
   1   1.7908E-02  2.4572E-02  3.7101E-02  5.2891E-02  6.6706E-02  7.2346E-02  6.7554E-02  5.5124E-02  4.1895E-02  3.3796E-02
   2   2.3625E-02  3.3483E-02  5.2757E-02  7.8461E-02  0.1022      0.1117      0.1033      8.1314E-02  5.9018E-02  4.5902E-02
   3   3.2609E-02  4.8557E-02  8.1824E-02  0.1306      0.1805      0.1992      0.1818      0.1344      9.0311E-02  6.6147E-02
   4   3.8597E-02  6.1523E-02  0.1146      0.2057      0.3170      0.3517      0.3185      0.2099      0.1244      8.2900E-02
   5   3.1038E-02  5.5068E-02  0.1228      0.2780      0.5486      0.5926      0.5497      0.2812      0.1304      7.2615E-02
   6   2.8465E-04  5.2437E-03  4.3542E-02  0.2341      0.9998      0.9256       1.000      0.2344      4.3410E-02  4.6240E-03
   7  -4.6944E-02 -9.2179E-02 -0.2077     -0.4536     -0.9642      -2.163     -0.9651     -0.4572     -0.2189     -0.1228    
   8  -7.2190E-02 -0.1486     -0.3707     -0.9670      -2.721      -9.250      -2.722     -0.9728     -0.3878     -0.1958    
   9  -4.9171E-02 -9.5430E-02 -0.2145     -0.4710      -1.006      -2.214      -1.007     -0.4749     -0.2263     -0.1271    
  10  -3.5968E-03 -4.6068E-04  3.1006E-02  0.1978      0.8887      0.7990      0.8887      0.1975      2.9887E-02 -2.8435E-03
  11   2.6571E-02  4.9160E-02  0.1126      0.2565      0.5050      0.5423      0.5059      0.2590      0.1190      6.4748E-02
  12   3.4341E-02  5.6305E-02  0.1071      0.1938      0.2986      0.3309      0.2999      0.1974      0.1158      7.5850E-02
  13   2.8996E-02  4.4263E-02  7.6209E-02  0.1231      0.1708      0.1887      0.1719      0.1263      8.3722E-02  6.0295E-02
  14   2.0725E-02  3.0053E-02  4.8395E-02  7.2976E-02  9.5740E-02  0.1048      9.6626E-02  7.5400E-02  5.3868E-02  4.1208E-02
  15   1.5462E-02  2.1671E-02  3.3421E-02  4.8331E-02  6.1430E-02  6.6756E-02  6.2125E-02  5.0203E-02  3.7550E-02  2.9820E-02

 HEAD WILL BE SAVED ON UNIT 1100 AT END OF TIME STEP   83, STRESS PERIOD    2


  VOLUME BUDGET FOR ENTIRE MODEL AT END OF TIME STEP   83, STRESS PERIOD   2
  ---------------------------------------------------------------------------------------------------

     CUMULATIVE VOLUME      L**3       RATES FOR THIS TIME STEP      L**3/T          PACKAGE NAME    
     ------------------                 ------------------------                     ----------------

           IN:                                      IN:
           ---                                      ---
              STO-SS =          25.0023                STO-SS =       8.2727E-03     STORAGE                          
              STO-SY =       61596.8199                STO-SY =          17.1621     STORAGE                          
                 WEL =           0.0000                   WEL =           0.0000     WEL-1                            
                 DRN =           0.0000                   DRN =           0.0000     DRN-0                            
                 API =      169818.1234                   API =         205.4099     MAR                              
                 CHD =       2.0279E-08                   CHD =           0.0000     CHD_0                            

            TOTAL IN =      231439.9456              TOTAL IN =         222.5802

          OUT:                                     OUT:
          ----                                     ----
              STO-SS =          21.5139                STO-SS =       8.6827E-03     STORAGE                          
              STO-SY =       42031.5017                STO-SY =          17.1616     STORAGE                          
                 WEL =      189386.9297                   WEL =         205.4099     WEL-1                            
                 DRN =       2.7596E-04                   DRN =       3.1246E-07     DRN-0                            
                 API =           0.0000                   API =           0.0000     MAR                              
                 CHD =       2.0705E-08                   CHD =           0.0000     CHD_0                            

           TOTAL OUT =      231439.9456             TOTAL OUT =         222.5802

            IN - OUT =      -9.9148E-07              IN - OUT =       7.4988E-10

 PERCENT DISCREPANCY =          -0.00     PERCENT DISCREPANCY =           0.00




         TIME SUMMARY AT END OF TIME STEP   83 IN STRESS PERIOD    2
                    SECONDS     MINUTES      HOURS       DAYS        YEARS
                    -----------------------------------------------------------
   TIME STEP LENGTH 8.64000E+05  14400.      240.00      10.000     2.73785E-02
 STRESS PERIOD TIME 7.17120E+07 1.19520E+06  19920.      830.00      2.2724    
         TOTAL TIME 7.17984E+07 1.19664E+06  19944.      831.00      2.2752    


end timestep


start timestep kper="2" kstp="84" mode="normal"

 UBDSV1 SAVING           STO-SS ON UNIT   1099 AT TIME STEP     84, STRESS PERIOD      2
 UBDSV1 SAVING           STO-SY ON UNIT   1099 AT TIME STEP     84, STRESS PERIOD      2
 UBDSV1 SAVING     FLOW-JA-FACE ON UNIT   1099 AT TIME STEP     84, STRESS PERIOD      2
 UBDSV06 SAVING       DATA-SPDIS IN MODEL GWF              PACKAGE NPF             CONNECTED TO MODEL GWF              PACKAGE NPF              ON UNIT   1099 AT TIME STEP     84, STRESS PERIOD      2
 UBDSV06 SAVING              WEL IN MODEL GWF              PACKAGE GWF             CONNECTED TO MODEL GWF              PACKAGE WEL-1            ON UNIT   1099 AT TIME STEP     84, STRESS PERIOD      2
 UBDSV06 SAVING              DRN IN MODEL GWF              PACKAGE GWF             CONNECTED TO MODEL GWF              PACKAGE DRN-0            ON UNIT   1099 AT TIME STEP     84, STRESS PERIOD      2
 UBDSV06 SAVING              API IN MODEL GWF              PACKAGE GWF             CONNECTED TO MODEL GWF              PACKAGE MAR              ON UNIT   1099 AT TIME STEP     84, STRESS PERIOD      2
 UBDSV06 SAVING              CHD IN MODEL GWF              PACKAGE GWF             CONNECTED TO MODEL GWF              PACKAGE CHD_0            ON UNIT   1099 AT TIME STEP     84, STRESS PERIOD      2

    CALCULATED INTERCELL FLOW FOR PERIOD 2 STEP 84
(1,1,1): (1,1,2) 6.800908E-02 (1,2,1) 5.765144E-02
(1,1,2): (1,1,1) -6.800908E-02 (1,1,3) 0.127850 (1,2,2) 8.980007E-02
(1,1,3): (1,1,2) -0.127850 (1,1,4) 0.161120 (1,2,3) 0.157879
(1,1,4): (1,1,3) -0.161120 (1,1,5) 0.141014 (1,2,4) 0.258365
(1,1,5): (1,1,4) -0.141014 (1,1,6) 5.764657E-02 (1,2,5) 0.359677
(1,1,6): (1,1,5) -5.764657E-02 (1,1,7) -4.871442E-02 (1,2,6) 0.399337
(1,1,7): (1,1,6) 4.871442E-02 (1,1,8) -0.126544 (1,2,7) 0.361977
(1,1,8): (1,1,7) 0.126544 (1,1,9) -0.134617 (1,2,8) 0.264747
(1,1,9): (1,1,8) 0.134617 (1,1,10) -8.237804E-02 (1,2,9) 0.172813
(1,1,10): (1,1,9) 8.237804E-02 (1,2,10) 0.122126
(1,2,1): (1,1,1) -5.765144E-02 (1,2,2) 0.100161 (1,3,1) 8.999819E-02
(1,2,2): (1,1,2) -8.980007E-02 (1,2,1) -0.100161 (1,2,3) 0.195954 (1,3,2) 0.151275
(1,2,3): (1,1,3) -0.157879 (1,2,2) -0.195954 (1,2,4) 0.261610 (1,3,3) 0.292824
(1,2,4): (1,1,4) -0.258365 (1,2,3) -0.261610 (1,2,5) 0.242211 (1,3,4) 0.528402
(1,2,5): (1,1,5) -0.359677 (1,2,4) -0.242211 (1,2,6) 9.718956E-02 (1,3,5) 0.796517
(1,2,6): (1,1,6) -0.399337 (1,2,5) -9.718956E-02 (1,2,7) -8.596059E-02 (1,3,6) 0.892531
(1,2,7): (1,1,7) -0.361977 (1,2,6) 8.596059E-02 (1,2,8) -0.223643 (1,3,7) 0.799825
(1,2,8): (1,1,8) -0.264747 (1,2,7) 0.223643 (1,2,9) -0.226516 (1,3,8) 0.537726
(1,2,9): (1,1,9) -0.172813 (1,2,8) 0.226516 (1,2,10) -0.133045 (1,3,9) 0.315479
(1,2,10): (1,1,10) -0.122126 (1,2,9) 0.133045 (1,3,10) 0.203456
(1,3,1): (1,2,1) -8.999819E-02 (1,3,2) 0.161444 (1,4,1) 5.827976E-02
(1,3,2): (1,2,2) -0.151275 (1,3,1) -0.161444 (1,3,3) 0.337565 (1,4,2) 0.128237
(1,3,3): (1,2,3) -0.292824 (1,3,2) -0.337565 (1,3,4) 0.497117 (1,4,3) 0.328829
(1,3,4): (1,2,4) -0.528402 (1,3,3) -0.497117 (1,3,5) 0.509591 (1,4,4) 0.763351
(1,3,5): (1,2,5) -0.796517 (1,3,4) -0.509591 (1,3,6) 0.192568 (1,4,5) 1.40610
(1,3,6): (1,2,6) -0.892531 (1,3,5) -0.192568 (1,3,7) -0.178040 (1,4,6) 1.57619
(1,3,7): (1,2,7) -0.799825 (1,3,6) 0.178040 (1,3,8) -0.484955 (1,4,7) 1.40766
(1,3,8): (1,2,8) -0.537726 (1,3,7) 0.484955 (1,3,9) -0.448571 (1,4,8) 0.767937
(1,3,9): (1,2,9) -0.315479 (1,3,8) 0.448571 (1,3,10) -0.244990 (1,4,9) 0.341738
(1,3,10): (1,2,10) -0.203456 (1,3,9) 0.244990 (1,4,10) 0.165766
(1,4,1): (1,3,1) -5.827976E-02 (1,4,2) 0.231472 (1,5,1) -8.019113E-02
(1,4,2): (1,3,2) -0.128237 (1,4,1) -0.231472 (1,4,3) 0.538567 (1,5,2) -7.007275E-02
(1,4,3): (1,3,3) -0.328829 (1,4,2) -0.538567 (1,4,4) 0.932338 (1,5,3) 7.730975E-02
(1,4,4): (1,3,4) -0.763351 (1,4,3) -0.932338 (1,4,5) 1.15082 (1,5,4) 0.736251
(1,4,5): (1,3,5) -1.40610 (1,4,4) -1.15082 (1,4,6) 0.360787 (1,5,5) 2.43720
(1,4,6): (1,3,6) -1.57619 (1,4,5) -0.360787 (1,4,7) -0.344692 (1,5,6) 2.54654
(1,4,7): (1,3,7) -1.40766 (1,4,6) 0.344692 (1,4,8) -1.12299 (1,5,7) 2.43345
(1,4,8): (1,3,8) -0.767937 (1,4,7) 1.12299 (1,4,9) -0.875205 (1,5,8) 0.725641
(1,4,9): (1,3,9) -0.341738 (1,4,8) 0.875205 (1,4,10) -0.421098 (1,5,9) 5.357748E-02
(1,4,10): (1,3,10) -0.165766 (1,4,9) 0.421098 (1,5,10) -0.110882
(1,5,1): (1,4,1) 8.019113E-02 (1,5,2) 0.241607 (1,6,1) -0.314611
(1,5,2): (1,4,2) 7.007275E-02 (1,5,1) -0.241607 (1,5,3) 0.686780 (1,6,2) -0.508262
(1,5,3): (1,4,3) -7.730975E-02 (1,5,2) -0.686780 (1,5,4) 1.59664 (1,6,3) -0.811512
(1,5,4): (1,4,4) -0.736251 (1,5,3) -1.59664 (1,5,5) 2.85813 (1,6,4) -0.459850
(1,5,5): (1,4,5) -2.43720 (1,5,4) -2.85813 (1,5,6) 0.468286 (1,6,5) 4.95642
(1,5,6): (1,4,6) -2.54654 (1,5,5) -0.468286 (1,5,7) -0.455855 (1,6,6) 3.63226
(1,5,7): (1,4,7) -2.43345 (1,5,6) 0.455855 (1,5,8) -2.83692 (1,6,7) 4.94568
(1,5,8): (1,4,8) -0.725641 (1,5,7) 2.83692 (1,5,9) -1.55252 (1,6,8) -0.491012
(1,5,9): (1,4,9) -5.357748E-02 (1,5,8) 1.55252 (1,5,10) -0.586293 (1,6,9) -0.891657
(1,5,10): (1,4,10) 0.110882 (1,5,9) 0.586293 (1,6,10) -0.694974
(1,6,1): (1,5,1) 0.314611 (1,6,2) 4.846398E-02 (1,7,1) -0.477938
(1,6,2): (1,5,2) 0.508262 (1,6,1) -4.846398E-02 (1,6,3) 0.383895 (1,7,2) -0.981545
(1,6,3): (1,5,3) 0.811512 (1,6,2) -0.383895 (1,6,4) 1.95222 (1,7,3) -2.53224
(1,6,4): (1,5,4) 0.459850 (1,6,3) -1.95222 (1,6,5) 8.42876 (1,7,4) -7.04835
(1,6,5): (1,5,5) -4.95642 (1,6,4) -8.42876 (1,6,6) -0.813329 (1,7,5) -21.6163
(1,6,6): (1,5,6) -3.63226 (1,6,5) 0.813329 (1,6,7) 0.815422 (1,7,6) -33.7596
(1,6,7): (1,5,7) -4.94568 (1,6,6) -0.815422 (1,6,8) -8.42881 (1,7,7) -21.6293
(1,6,8): (1,5,8) 0.491012 (1,6,7) 8.42881 (1,6,9) -1.95732 (1,7,8) -7.08848
(1,6,9): (1,5,9) 0.891657 (1,6,8) 1.95732 (1,6,10) -0.390184 (1,7,9) -2.64435
(1,6,10): (1,5,10) 0.694974 (1,6,9) 0.390184 (1,7,10) -1.28416
(1,7,1): (1,6,1) 0.477938 (1,7,2) -0.452519 (1,8,1) -0.253663
(1,7,2): (1,6,2) 0.981545 (1,7,1) 0.452519 (1,7,3) -1.14726 (1,8,2) -0.562171
(1,7,3): (1,6,3) 2.53224 (1,7,2) 1.14726 (1,7,4) -2.40691 (1,8,3) -1.60019
(1,7,4): (1,6,4) 7.04835 (1,7,3) 2.40691 (1,7,5) -4.86915 (1,8,4) -4.90727
(1,7,5): (1,6,5) 21.6163 (1,7,4) 4.86915 (1,7,6) -10.8296 (1,8,5) -15.8767
(1,7,6): (1,6,6) 33.7596 (1,7,5) 10.8296 (1,7,7) 10.8197 (1,8,6) -55.5276
(1,7,7): (1,6,7) 21.6293 (1,7,6) -10.8197 (1,7,8) 4.84107 (1,8,7) -15.8822
(1,7,8): (1,6,8) 7.08848 (1,7,7) -4.84107 (1,7,9) 2.32822 (1,8,8) -4.92669
(1,7,9): (1,6,9) 2.64435 (1,7,8) -2.32822 (1,7,10) 0.948949 (1,8,9) -1.65721
(1,7,10): (1,6,10) 1.28416 (1,7,9) -0.948949 (1,8,10) -0.724921
(1,8,1): (1,7,1) 0.253663 (1,8,2) -0.761651 (1,9,1) 0.231186
(1,8,2): (1,7,2) 0.562171 (1,8,1) 0.761651 (1,8,3) -2.19158 (1,9,2) 0.528861
(1,8,3): (1,7,3) 1.60019 (1,8,2) 2.19158 (1,8,4) -5.74289 (1,9,3) 1.52932
(1,8,4): (1,7,4) 4.90727 (1,8,3) 5.74289 (1,8,5) -15.8336 (1,9,4) 4.72398
(1,8,5): (1,7,5) 15.8767 (1,8,4) 15.8336 (1,8,6) -47.5036 (1,9,5) 15.4112
(1,8,6): (1,7,6) 55.5276 (1,8,5) 47.5036 (1,8,7) 47.4793 (1,9,6) 54.7472
(1,8,7): (1,7,7) 15.8822 (1,8,6) -47.4793 (1,8,8) 15.7854 (1,9,7) 15.4151
(1,8,8): (1,7,8) 4.92669 (1,8,7) -15.7854 (1,8,9) 5.62150 (1,9,8) 4.74019
(1,8,9): (1,7,9) 1.65721 (1,8,8) -5.62150 (1,8,10) 1.88342 (1,9,9) 1.58056
(1,8,10): (1,7,10) 0.724921 (1,8,9) -1.88342 (1,9,10) 0.681307
(1,9,1): (1,8,1) -0.231186 (1,9,2) -0.463271 (1,10,1) 0.461057
(1,9,2): (1,8,2) -0.528861 (1,9,1) 0.463271 (1,9,3) -1.18431 (1,10,2) 0.955895
(1,9,3): (1,8,3) -1.52932 (1,9,2) 1.18431 (1,9,4) -2.51405 (1,10,3) 2.46965
(1,9,4): (1,8,4) -4.72398 (1,9,3) 2.51405 (1,9,5) -5.09850 (1,10,4) 6.82352
(1,9,5): (1,8,5) -15.4112 (1,9,4) 5.09850 (1,9,6) -10.8602 (1,10,5) 20.6185
(1,9,6): (1,8,6) -54.7472 (1,9,5) 10.8602 (1,9,7) 10.8488 (1,10,6) 32.5169
(1,9,7): (1,8,7) -15.4151 (1,9,6) -10.8488 (1,9,8) 5.06851 (1,10,7) 20.6304
(1,9,8): (1,8,8) -4.74019 (1,9,7) -5.06851 (1,9,9) 2.43257 (1,10,8) 6.86115
(1,9,9): (1,8,9) -1.58056 (1,9,8) -2.43257 (1,9,10) 0.981352 (1,10,9) 2.57730
(1,9,10): (1,8,10) -0.681307 (1,9,9) -0.981352 (1,10,10) 1.25062
(1,10,1): (1,9,1) -0.461057 (1,10,2) 2.914929E-02 (1,11,1) 0.308650
(1,10,2): (1,9,2) -0.955895 (1,10,1) -2.914929E-02 (1,10,3) 0.311327 (1,11,2) 0.506276
(1,10,3): (1,9,3) -2.46965 (1,10,2) -0.311327 (1,10,4) 1.69300 (1,11,3) 0.835213
(1,10,4): (1,9,4) -6.82352 (1,10,3) -1.69300 (1,10,5) 7.50766 (1,11,4) 0.616374
(1,10,5): (1,9,5) -20.6185 (1,10,4) -7.50766 (1,10,6) -0.978840 (1,11,5) -4.15354
(1,10,6): (1,9,6) -32.5169 (1,10,5) 0.978840 (1,10,7) 0.978583 (1,11,6) -2.74720
(1,10,7): (1,9,7) -20.6304 (1,10,6) -0.978583 (1,10,8) -7.51089 (1,11,7) -4.14339
(1,10,8): (1,9,8) -6.86115 (1,10,7) 7.51089 (1,10,9) -1.70280 (1,11,8) 0.646361
(1,10,9): (1,9,9) -2.57730 (1,10,8) 1.70280 (1,10,10) -0.325607 (1,11,9) 0.913441
(1,10,10): (1,9,10) -1.25062 (1,10,9) 0.325607 (1,11,10) 0.690866
(1,11,1): (1,10,1) -0.308650 (1,11,2) 0.226229 (1,12,1) 8.235166E-02
(1,11,2): (1,10,2) -0.506276 (1,11,1) -0.226229 (1,11,3) 0.639641 (1,12,2) 7.749035E-02
(1,11,3): (1,10,3) -0.835213 (1,11,2) -0.639641 (1,11,4) 1.47228 (1,12,3) -4.737840E-02
(1,11,4): (1,10,4) -0.616374 (1,11,3) -1.47228 (1,11,5) 2.60527 (1,12,4) -0.631102
(1,11,5): (1,10,5) 4.15354 (1,11,4) -2.60527 (1,11,6) 0.391813 (1,12,5) -2.15147
(1,11,6): (1,10,6) 2.74720 (1,11,5) -0.391813 (1,11,7) -0.382243 (1,12,6) -2.21056
(1,11,7): (1,10,7) 4.14339 (1,11,6) 0.382243 (1,11,8) -2.58786 (1,12,7) -2.14767
(1,11,8): (1,10,8) -0.646361 (1,11,7) 2.58786 (1,11,9) -1.43363 (1,12,8) -0.620392
(1,11,9): (1,10,9) -0.913441 (1,11,8) 1.43363 (1,11,10) -0.547400 (1,12,9) -2.335233E-02
(1,11,10): (1,10,10) -0.690866 (1,11,9) 0.547400 (1,12,10) 0.119654
(1,12,1): (1,11,1) -8.235166E-02 (1,12,2) 0.221361 (1,13,1) -5.182136E-02
(1,12,2): (1,11,2) -7.749035E-02 (1,12,1) -0.221361 (1,12,3) 0.514106 (1,13,2) -0.118654
(1,12,3): (1,11,3) 4.737840E-02 (1,12,2) -0.514106 (1,12,4) 0.883894 (1,13,3) -0.308630
(1,12,4): (1,11,4) 0.631102 (1,12,3) -0.883894 (1,12,5) 1.07871 (1,13,4) -0.715284
(1,12,5): (1,11,5) 2.15147 (1,12,4) -1.07871 (1,12,6) 0.333566 (1,13,5) -1.30895
(1,12,6): (1,11,6) 2.21056 (1,12,5) -0.333566 (1,12,7) -0.320267 (1,13,6) -1.46128
(1,12,7): (1,11,7) 2.14767 (1,12,6) 0.320267 (1,12,8) -1.05455 (1,13,7) -1.31009
(1,12,8): (1,11,8) 0.620392 (1,12,7) 1.05455 (1,12,9) -0.831977 (1,13,8) -0.718955
(1,12,9): (1,11,9) 2.335233E-02 (1,12,8) 0.831977 (1,12,10) -0.403800 (1,13,9) -0.319916
(1,12,10): (1,11,10) -0.119654 (1,12,9) 0.403800 (1,13,10) -0.153324
(1,13,1): (1,12,1) 5.182136E-02 (1,13,2) 0.154460 (1,14,1) -8.290000E-02
(1,13,2): (1,12,2) 0.118654 (1,13,1) -0.154460 (1,13,3) 0.323750 (1,14,2) -0.142525
(1,13,3): (1,12,3) 0.308630 (1,13,2) -0.323750 (1,13,4) 0.476584 (1,14,3) -0.279752
(1,13,4): (1,12,4) 0.715284 (1,13,3) -0.476584 (1,13,5) 0.486319 (1,14,4) -0.506397
(1,13,5): (1,12,5) 1.30895 (1,13,4) -0.486319 (1,13,6) 0.182799 (1,14,5) -0.761702
(1,13,6): (1,12,6) 1.46128 (1,13,5) -0.182799 (1,13,7) -0.170647 (1,14,6) -0.852491
(1,13,7): (1,12,7) 1.31009 (1,13,6) 0.170647 (1,13,8) -0.464824 (1,14,7) -0.764525
(1,13,8): (1,12,8) 0.718955 (1,13,7) 0.464824 (1,13,9) -0.432506 (1,14,8) -0.514635
(1,13,9): (1,12,9) 0.319916 (1,13,8) 0.432506 (1,13,10) -0.237072 (1,14,9) -0.300507
(1,13,10): (1,12,10) 0.153324 (1,13,9) 0.237072 (1,14,10) -0.191712
(1,14,1): (1,13,1) 8.290000E-02 (1,14,2) 9.482798E-02 (1,15,1) -5.314220E-02
(1,14,2): (1,13,2) 0.142525 (1,14,1) -9.482798E-02 (1,14,3) 0.186464 (1,15,2) -8.451053E-02
(1,14,3): (1,13,3) 0.279752 (1,14,2) -0.186464 (1,14,4) 0.250005 (1,15,3) -0.150939
(1,14,4): (1,13,4) 0.506397 (1,14,3) -0.250005 (1,14,5) 0.231688 (1,15,4) -0.248741
(1,14,5): (1,13,5) 0.761702 (1,14,4) -0.231688 (1,14,6) 9.258671E-02 (1,15,5) -0.346843
(1,14,6): (1,13,6) 0.852491 (1,14,5) -9.258671E-02 (1,14,7) -8.324977E-02 (1,15,6) -0.385109
(1,14,7): (1,13,7) 0.764525 (1,14,6) 8.324977E-02 (1,14,8) -0.215651 (1,15,7) -0.348834
(1,14,8): (1,13,8) 0.514635 (1,14,7) 0.215651 (1,14,9) -0.218549 (1,15,8) -0.254424
(1,14,9): (1,13,9) 0.300507 (1,14,8) 0.218549 (1,14,10) -0.128344 (1,15,9) -0.164647
(1,14,10): (1,13,10) 0.191712 (1,14,9) 0.128344 (1,15,10) -0.114944
(1,15,1): (1,14,1) 5.314220E-02 (1,15,2) 6.345643E-02
(1,15,2): (1,14,2) 8.451053E-02 (1,15,1) -6.345643E-02 (1,15,3) 0.120011
(1,15,3): (1,14,3) 0.150939 (1,15,2) -0.120011 (1,15,4) 0.152202
(1,15,4): (1,14,4) 0.248741 (1,15,3) -0.152202 (1,15,5) 0.133696
(1,15,5): (1,14,5) 0.346843 (1,15,4) -0.133696 (1,15,6) 5.442982E-02
(1,15,6): (1,14,6) 0.385109 (1,15,5) -5.442982E-02 (1,15,7) -4.708158E-02
(1,15,7): (1,14,7) 0.348834 (1,15,6) 4.708158E-02 (1,15,8) -0.121363
(1,15,8): (1,14,8) 0.254424 (1,15,7) 0.121363 (1,15,9) -0.128804
(1,15,9): (1,14,9) 0.164647 (1,15,8) 0.128804 (1,15,10) -7.865916E-02
(1,15,10): (1,14,10) 0.114944 (1,15,9) 7.865916E-02

 WEL PACKAGE (WEL-1) FLOW RATES   PERIOD      2   STEP       84
 ----------------------------------------------------------------------------------------
   NUMBER   CELLID                    RATE       NAME                                    
 ----------------------------------------------------------------------------------------
     1      (1,8,6)              -205.31627      WEL                                     
 ----------------------------------------------------------------------------------------




 DRN PACKAGE (DRN-0) FLOW RATES   PERIOD      2   STEP       84
 ----------------------------------------------------------------------------------------
   NUMBER   CELLID                    RATE       NAME                                    
 ----------------------------------------------------------------------------------------
     1      (1,1,1)               0.0000000      SURF                                    
     2      (1,1,2)               0.0000000      SURF                                    
     3      (1,1,3)               0.0000000      SURF                                    
     4      (1,1,4)               0.0000000      SURF                                    
     5      (1,1,5)               0.0000000      SURF                                    
     6      (1,1,6)               0.0000000      SURF                                    
     7      (1,1,7)               0.0000000      SURF                                    
     8      (1,1,8)               0.0000000      SURF                                    
     9      (1,1,9)               0.0000000      SURF                                    
     10     (1,1,10)              0.0000000      SURF                                    
     11     (1,2,1)               0.0000000      SURF                                    
     12     (1,2,2)               0.0000000      SURF                                    
     13     (1,2,3)               0.0000000      SURF                                    
     14     (1,2,4)               0.0000000      SURF                                    
     15     (1,2,5)               0.0000000      SURF                                    
     16     (1,2,6)               0.0000000      SURF                                    
     17     (1,2,7)               0.0000000      SURF                                    
     18     (1,2,8)               0.0000000      SURF                                    
     19     (1,2,9)               0.0000000      SURF                                    
     20     (1,2,10)              0.0000000      SURF                                    
     21     (1,3,1)               0.0000000      SURF                                    
     22     (1,3,2)               0.0000000      SURF                                    
     23     (1,3,3)               0.0000000      SURF                                    
     24     (1,3,4)               0.0000000      SURF                                    
     25     (1,3,5)               0.0000000      SURF                                    
     26     (1,3,6)               0.0000000      SURF                                    
     27     (1,3,7)               0.0000000      SURF                                    
     28     (1,3,8)               0.0000000      SURF                                    
     29     (1,3,9)               0.0000000      SURF                                    
     30     (1,3,10)              0.0000000      SURF                                    
     31     (1,4,1)               0.0000000      SURF                                    
     32     (1,4,2)               0.0000000      SURF                                    
     33     (1,4,3)               0.0000000      SURF                                    
     34     (1,4,4)               0.0000000      SURF                                    
     35     (1,4,5)               0.0000000      SURF                                    
     36     (1,4,6)               0.0000000      SURF                                    
     37     (1,4,7)               0.0000000      SURF                                    
     38     (1,4,8)               0.0000000      SURF                                    
     39     (1,4,9)               0.0000000      SURF                                    
     40     (1,4,10)              0.0000000      SURF                                    
     41     (1,5,1)               0.0000000      SURF                                    
     42     (1,5,2)               0.0000000      SURF                                    
     43     (1,5,3)               0.0000000      SURF                                    
     44     (1,5,4)               0.0000000      SURF                                    
     45     (1,5,5)               0.0000000      SURF                                    
     46     (1,5,6)               0.0000000      SURF                                    
     47     (1,5,7)               0.0000000      SURF                                    
     48     (1,5,8)               0.0000000      SURF                                    
     49     (1,5,9)               0.0000000      SURF                                    
     50     (1,5,10)              0.0000000      SURF                                    
     51     (1,6,1)               0.0000000      SURF                                    
     52     (1,6,2)               0.0000000      SURF                                    
     53     (1,6,3)               0.0000000      SURF                                    
     54     (1,6,4)               0.0000000      SURF                                    
     55     (1,6,5)               0.0000000      SURF                                    
     56     (1,6,6)               0.0000000      SURF                                    
     57     (1,6,7)              -3.11905751E-07 SURF                                    
     58     (1,6,8)               0.0000000      SURF                                    
     59     (1,6,9)               0.0000000      SURF                                    
     60     (1,6,10)              0.0000000      SURF                                    
     61     (1,7,1)               0.0000000      SURF                                    
     62     (1,7,2)               0.0000000      SURF                                    
     63     (1,7,3)               0.0000000      SURF                                    
     64     (1,7,4)               0.0000000      SURF                                    
     65     (1,7,5)               0.0000000      SURF                                    
     66     (1,7,6)               0.0000000      SURF                                    
     67     (1,7,7)               0.0000000      SURF                                    
     68     (1,7,8)               0.0000000      SURF                                    
     69     (1,7,9)               0.0000000      SURF                                    
     70     (1,7,10)              0.0000000      SURF                                    
     71     (1,8,1)               0.0000000      SURF                                    
     72     (1,8,2)               0.0000000      SURF                                    
     73     (1,8,3)               0.0000000      SURF                                    
     74     (1,8,4)               0.0000000      SURF                                    
     75     (1,8,5)               0.0000000      SURF                                    
     76     (1,8,6)               0.0000000      SURF                                    
     77     (1,8,7)               0.0000000      SURF                                    
     78     (1,8,8)               0.0000000      SURF                                    
     79     (1,8,9)               0.0000000      SURF                                    
     80     (1,8,10)              0.0000000      SURF                                    
     81     (1,9,1)               0.0000000      SURF                                    
     82     (1,9,2)               0.0000000      SURF                                    
     83     (1,9,3)               0.0000000      SURF                                    
     84     (1,9,4)               0.0000000      SURF                                    
     85     (1,9,5)               0.0000000      SURF                                    
     86     (1,9,6)               0.0000000      SURF                                    
     87     (1,9,7)               0.0000000      SURF                                    
     88     (1,9,8)               0.0000000      SURF                                    
     89     (1,9,9)               0.0000000      SURF                                    
     90     (1,9,10)              0.0000000      SURF                                    
     91     (1,10,1)              0.0000000      SURF                                    
     92     (1,10,2)              0.0000000      SURF                                    
     93     (1,10,3)              0.0000000      SURF                                    
     94     (1,10,4)              0.0000000      SURF                                    
     95     (1,10,5)              0.0000000      SURF                                    
     96     (1,10,6)              0.0000000      SURF                                    
     97     (1,10,7)              0.0000000      SURF                                    
     98     (1,10,8)              0.0000000      SURF                                    
     99     (1,10,9)              0.0000000      SURF                                    
    100     (1,10,10)             0.0000000      SURF                                    
    101     (1,11,1)              0.0000000      SURF                                    
    102     (1,11,2)              0.0000000      SURF                                    
    103     (1,11,3)              0.0000000      SURF                                    
    104     (1,11,4)              0.0000000      SURF                                    
    105     (1,11,5)              0.0000000      SURF                                    
    106     (1,11,6)              0.0000000      SURF                                    
    107     (1,11,7)              0.0000000      SURF                                    
    108     (1,11,8)              0.0000000      SURF                                    
    109     (1,11,9)              0.0000000      SURF                                    
    110     (1,11,10)             0.0000000      SURF                                    
    111     (1,12,1)              0.0000000      SURF                                    
    112     (1,12,2)              0.0000000      SURF                                    
    113     (1,12,3)              0.0000000      SURF                                    
    114     (1,12,4)              0.0000000      SURF                                    
    115     (1,12,5)              0.0000000      SURF                                    
    116     (1,12,6)              0.0000000      SURF                                    
    117     (1,12,7)              0.0000000      SURF                                    
    118     (1,12,8)              0.0000000      SURF                                    
    119     (1,12,9)              0.0000000      SURF                                    
    120     (1,12,10)             0.0000000      SURF                                    
    121     (1,13,1)              0.0000000      SURF                                    
    122     (1,13,2)              0.0000000      SURF                                    
    123     (1,13,3)              0.0000000      SURF                                    
    124     (1,13,4)              0.0000000      SURF                                    
    125     (1,13,5)              0.0000000      SURF                                    
    126     (1,13,6)              0.0000000      SURF                                    
    127     (1,13,7)              0.0000000      SURF                                    
    128     (1,13,8)              0.0000000      SURF                                    
    129     (1,13,9)              0.0000000      SURF                                    
    130     (1,13,10)             0.0000000      SURF                                    
    131     (1,14,1)              0.0000000      SURF                                    
    132     (1,14,2)              0.0000000      SURF                                    
    133     (1,14,3)              0.0000000      SURF                                    
    134     (1,14,4)              0.0000000      SURF                                    
    135     (1,14,5)              0.0000000      SURF                                    
    136     (1,14,6)              0.0000000      SURF                                    
    137     (1,14,7)              0.0000000      SURF                                    
    138     (1,14,8)              0.0000000      SURF                                    
    139     (1,14,9)              0.0000000      SURF                                    
    140     (1,14,10)             0.0000000      SURF                                    
    141     (1,15,1)              0.0000000      SURF                                    
    142     (1,15,2)              0.0000000      SURF                                    
    143     (1,15,3)              0.0000000      SURF                                    
    144     (1,15,4)              0.0000000      SURF                                    
    145     (1,15,5)              0.0000000      SURF                                    
    146     (1,15,6)              0.0000000      SURF                                    
    147     (1,15,7)              0.0000000      SURF                                    
    148     (1,15,8)              0.0000000      SURF                                    
    149     (1,15,9)              0.0000000      SURF                                    
    150     (1,15,10)             0.0000000      SURF                                    
 ----------------------------------------------------------------------------------------




 API PACKAGE (MAR) FLOW RATES   PERIOD      2   STEP       84
 -----------------------------------------------
   NUMBER   CELLID                    RATE      
 -----------------------------------------------
     1      (1,6,5)               35.819261     
     2      (1,6,6)               35.819261     
     3      (1,6,7)               35.819261     
     4      (1,10,5)              32.619496     
     5      (1,10,6)              32.619496     
     6      (1,10,7)              32.619496     
 -----------------------------------------------



1
  HEAD IN LAYER   1 AT END OF TIME STEP  84 IN STRESS PERIOD    2
  ---------------------------------------------------------------------------

            1           2           3           4           5           6           7           8           9          10
 ........................................................................................................................
   1   1.8536E-02  2.5319E-02  3.8056E-02  5.4081E-02  6.8087E-02  7.3810E-02  6.8974E-02  5.6406E-02  4.3020E-02  3.4818E-02
   2   2.4287E-02  3.4269E-02  5.3759E-02  7.9713E-02  0.1037      0.1133      0.1048      8.2664E-02  6.0198E-02  4.6973E-02
   3   3.3257E-02  4.9322E-02  8.2801E-02  0.1319      0.1819      0.2008      0.1833      0.1357      9.1460E-02  6.7183E-02
   4   3.9062E-02  6.2067E-02  0.1153      0.2067      0.3182      0.3530      0.3197      0.2109      0.1252      8.3622E-02
   5   3.1074E-02  5.5103E-02  0.1229      0.2783      0.5492      0.5934      0.5504      0.2815      0.1305      7.2626E-02
   6  -2.8938E-04  4.5548E-03  4.2781E-02  0.2335      0.9998      0.9259       1.000      0.2337      4.2483E-02  3.6295E-03
   7  -4.8084E-02 -9.3555E-02 -0.2094     -0.4552     -0.9653      -2.164     -0.9663     -0.4589     -0.2208     -0.1247    
   8  -7.3573E-02 -0.1503     -0.3728     -0.9693      -2.723      -9.250      -2.724     -0.9753     -0.3903     -0.1981    
   9  -5.0338E-02 -9.6899E-02 -0.2165     -0.4735      -1.009      -2.216      -1.010     -0.4775     -0.2285     -0.1291    
  10  -4.2128E-03 -1.2975E-03  2.9743E-02  0.1958      0.8855      0.7956      0.8855      0.1955      2.8455E-02 -4.0137E-03
  11   2.6570E-02  4.9083E-02  0.1123      0.2559      0.5039      0.5411      0.5048      0.2585      0.1187      6.4629E-02
  12   3.4777E-02  5.6788E-02  0.1077      0.1944      0.2991      0.3314      0.3004      0.1980      0.1164      7.6504E-02
  13   2.9613E-02  4.4990E-02  7.7117E-02  0.1242      0.1720      0.1899      0.1732      0.1275      8.4796E-02  6.1288E-02
  14   2.1347E-02  3.0801E-02  4.9356E-02  7.4172E-02  9.7118E-02  0.1063      9.8042E-02  7.6686E-02  5.4998E-02  4.2233E-02
  15   1.6044E-02  2.2376E-02  3.4336E-02  4.9481E-02  6.2767E-02  6.8174E-02  6.3497E-02  5.1438E-02  3.8623E-02  3.0787E-02

 HEAD WILL BE SAVED ON UNIT 1100 AT END OF TIME STEP   84, STRESS PERIOD    2


  VOLUME BUDGET FOR ENTIRE MODEL AT END OF TIME STEP   84, STRESS PERIOD   2
  ---------------------------------------------------------------------------------------------------

     CUMULATIVE VOLUME      L**3       RATES FOR THIS TIME STEP      L**3/T          PACKAGE NAME    
     ------------------                 ------------------------                     ----------------

           IN:                                      IN:
           ---                                      ---
              STO-SS =          25.0841                STO-SS =       8.1817E-03     STORAGE                          
              STO-SY =       61766.4930                STO-SY =          16.9673     STORAGE                          
                 WEL =           0.0000                   WEL =           0.0000     WEL-1                            
                 DRN =           0.0000                   DRN =           0.0000     DRN-0                            
                 API =      171871.2861                   API =         205.3163     MAR                              
                 CHD =       2.0279E-08                   CHD =           0.0000     CHD_0                            

            TOTAL IN =      233662.8632              TOTAL IN =         222.2918

          OUT:                                     OUT:
          ----                                     ----
              STO-SS =          21.5998                STO-SS =       8.5843E-03     STORAGE                          
              STO-SY =       42201.1707                STO-SY =          16.9669     STORAGE                          
                 WEL =      191440.0924                   WEL =         205.3163     WEL-1                            
                 DRN =       2.7908E-04                   DRN =       3.1191E-07     DRN-0                            
                 API =           0.0000                   API =           0.0000     MAR                              
                 CHD =       2.0705E-08                   CHD =           0.0000     CHD_0                            

           TOTAL OUT =      233662.8632             TOTAL OUT =         222.2918

            IN - OUT =      -9.8397E-07              IN - OUT =       7.5252E-10

 PERCENT DISCREPANCY =          -0.00     PERCENT DISCREPANCY =           0.00




         TIME SUMMARY AT END OF TIME STEP   84 IN STRESS PERIOD    2
                    SECONDS     MINUTES      HOURS       DAYS        YEARS
                    -----------------------------------------------------------
   TIME STEP LENGTH 8.64000E+05  14400.      240.00      10.000     2.73785E-02
 STRESS PERIOD TIME 7.25760E+07 1.20960E+06  20160.      840.00      2.2998    
         TOTAL TIME 7.26624E+07 1.21104E+06  20184.      841.00      2.3025    


end timestep


start timestep kper="2" kstp="85" mode="normal"

 UBDSV1 SAVING           STO-SS ON UNIT   1099 AT TIME STEP     85, STRESS PERIOD      2
 UBDSV1 SAVING           STO-SY ON UNIT   1099 AT TIME STEP     85, STRESS PERIOD      2
 UBDSV1 SAVING     FLOW-JA-FACE ON UNIT   1099 AT TIME STEP     85, STRESS PERIOD      2
 UBDSV06 SAVING       DATA-SPDIS IN MODEL GWF              PACKAGE NPF             CONNECTED TO MODEL GWF              PACKAGE NPF              ON UNIT   1099 AT TIME STEP     85, STRESS PERIOD      2
 UBDSV06 SAVING              WEL IN MODEL GWF              PACKAGE GWF             CONNECTED TO MODEL GWF              PACKAGE WEL-1            ON UNIT   1099 AT TIME STEP     85, STRESS PERIOD      2
 UBDSV06 SAVING              DRN IN MODEL GWF              PACKAGE GWF             CONNECTED TO MODEL GWF              PACKAGE DRN-0            ON UNIT   1099 AT TIME STEP     85, STRESS PERIOD      2
 UBDSV06 SAVING              API IN MODEL GWF              PACKAGE GWF             CONNECTED TO MODEL GWF              PACKAGE MAR              ON UNIT   1099 AT TIME STEP     85, STRESS PERIOD      2
 UBDSV06 SAVING              CHD IN MODEL GWF              PACKAGE GWF             CONNECTED TO MODEL GWF              PACKAGE CHD_0            ON UNIT   1099 AT TIME STEP     85, STRESS PERIOD      2

    CALCULATED INTERCELL FLOW FOR PERIOD 2 STEP 85
(1,1,1): (1,1,2) 6.920174E-02 (1,2,1) 5.795942E-02
(1,1,2): (1,1,1) -6.920174E-02 (1,1,3) 0.129919 (1,2,2) 9.014447E-02
(1,1,3): (1,1,2) -0.129919 (1,1,4) 0.163478 (1,2,3) 0.158313
(1,1,4): (1,1,3) -0.163478 (1,1,5) 0.142926 (1,2,4) 0.258953
(1,1,5): (1,1,4) -0.142926 (1,1,6) 5.848781E-02 (1,2,5) 0.360434
(1,1,6): (1,1,5) -5.848781E-02 (1,1,7) -4.915162E-02 (1,2,6) 0.400177
(1,1,7): (1,1,6) 4.915162E-02 (1,1,8) -0.127915 (1,2,7) 0.362759
(1,1,8): (1,1,7) 0.127915 (1,1,9) -0.136192 (1,2,8) 0.265385
(1,1,9): (1,1,8) 0.136192 (1,1,10) -8.339857E-02 (1,2,9) 0.173324
(1,1,10): (1,1,9) 8.339857E-02 (1,2,10) 0.122572
(1,2,1): (1,1,1) -5.795942E-02 (1,2,2) 0.101390 (1,3,1) 8.980122E-02
(1,2,2): (1,1,2) -9.014447E-02 (1,2,1) -0.101390 (1,2,3) 0.198115 (1,3,2) 0.151009
(1,2,3): (1,1,3) -0.158313 (1,2,2) -0.198115 (1,2,4) 0.264122 (1,3,3) 0.292522
(1,2,4): (1,1,4) -0.258953 (1,2,3) -0.264122 (1,2,5) 0.244292 (1,3,4) 0.528215
(1,2,5): (1,1,5) -0.360434 (1,2,4) -0.244292 (1,2,6) 9.811462E-02 (1,3,5) 0.796567
(1,2,6): (1,1,6) -0.400177 (1,2,5) -9.811462E-02 (1,2,7) -8.645640E-02 (1,3,6) 0.892712
(1,2,7): (1,1,7) -0.362759 (1,2,6) 8.645640E-02 (1,2,8) -0.225158 (1,3,7) 0.799874
(1,2,8): (1,1,8) -0.265385 (1,2,7) 0.225158 (1,2,9) -0.228220 (1,3,8) 0.537519
(1,2,9): (1,1,9) -0.173324 (1,2,8) 0.228220 (1,2,10) -0.134131 (1,3,9) 0.315103
(1,2,10): (1,1,10) -0.122572 (1,2,9) 0.134131 (1,3,10) 0.203028
(1,3,1): (1,2,1) -8.980122E-02 (1,3,2) 0.162605 (1,4,1) 5.638510E-02
(1,3,2): (1,2,2) -0.151009 (1,3,1) -0.162605 (1,3,3) 0.339694 (1,4,2) 0.125971
(1,3,3): (1,2,3) -0.292522 (1,3,2) -0.339694 (1,3,4) 0.499750 (1,4,3) 0.326126
(1,3,4): (1,2,4) -0.528215 (1,3,3) -0.499750 (1,3,5) 0.511914 (1,4,4) 0.760537
(1,3,5): (1,2,5) -0.796567 (1,3,4) -0.511914 (1,3,6) 0.193624 (1,4,5) 1.40357
(1,3,6): (1,2,6) -0.892712 (1,3,5) -0.193624 (1,3,7) -0.178666 (1,4,6) 1.57385
(1,3,7): (1,2,7) -0.799874 (1,3,6) 0.178666 (1,3,8) -0.486729 (1,4,7) 1.40503
(1,3,8): (1,2,8) -0.537519 (1,3,7) 0.486729 (1,3,9) -0.450449 (1,4,8) 0.764857
(1,3,9): (1,2,9) -0.315103 (1,3,8) 0.450449 (1,3,10) -0.246130 (1,4,9) 0.338486
(1,3,10): (1,2,10) -0.203028 (1,3,9) 0.246130 (1,4,10) 0.162552
(1,4,1): (1,3,1) -5.638510E-02 (1,4,2) 0.232264 (1,5,1) -8.450567E-02
(1,4,2): (1,3,2) -0.125971 (1,4,1) -0.232264 (1,4,3) 0.540267 (1,5,2) -7.516693E-02
(1,4,3): (1,3,3) -0.326126 (1,4,2) -0.540267 (1,4,4) 0.934883 (1,5,3) 7.125606E-02
(1,4,4): (1,3,4) -0.760537 (1,4,3) -0.934883 (1,4,5) 1.15346 (1,5,4) 0.729908
(1,4,5): (1,3,5) -1.40357 (1,4,4) -1.15346 (1,4,6) 0.362036 (1,5,5) 2.43155
(1,4,6): (1,3,6) -1.57385 (1,4,5) -0.362036 (1,4,7) -0.345612 (1,5,6) 2.54133
(1,4,7): (1,3,7) -1.40503 (1,4,6) 0.345612 (1,4,8) -1.12524 (1,5,7) 2.42755
(1,4,8): (1,3,8) -0.764857 (1,4,7) 1.12524 (1,4,9) -0.877276 (1,5,8) 0.718686
(1,4,9): (1,3,9) -0.338486 (1,4,8) 0.877276 (1,4,10) -0.422208 (1,5,9) 4.631624E-02
(1,4,10): (1,3,10) -0.162552 (1,4,9) 0.422208 (1,5,10) -0.118011
(1,5,1): (1,4,1) 8.450567E-02 (1,5,2) 0.241617 (1,6,1) -0.320672
(1,5,2): (1,4,2) 7.516693E-02 (1,5,1) -0.241617 (1,5,3) 0.687517 (1,6,2) -0.515429
(1,5,3): (1,4,3) -7.125606E-02 (1,5,2) -0.687517 (1,5,4) 1.59894 (1,6,3) -0.820102
(1,5,4): (1,4,4) -0.729908 (1,5,3) -1.59894 (1,5,5) 2.86160 (1,6,4) -0.468741
(1,5,5): (1,4,5) -2.43155 (1,5,4) -2.86160 (1,5,6) 0.469982 (1,6,5) 4.94973
(1,5,6): (1,4,6) -2.54133 (1,5,5) -0.469982 (1,5,7) -0.457465 (1,6,6) 3.62672
(1,5,7): (1,4,7) -2.42755 (1,5,6) 0.457465 (1,5,8) -2.84037 (1,6,7) 4.93863
(1,5,8): (1,4,8) -0.718686 (1,5,7) 2.84037 (1,5,9) -1.55496 (1,6,8) -0.500748
(1,5,9): (1,4,9) -4.631624E-02 (1,5,8) 1.55496 (1,5,10) -0.587267 (1,6,9) -0.901913
(1,5,10): (1,4,10) 0.118011 (1,5,9) 0.587267 (1,6,10) -0.704936
(1,6,1): (1,5,1) 0.320672 (1,6,2) 4.738552E-02 (1,7,1) -0.483495
(1,6,2): (1,5,2) 0.515429 (1,6,1) -4.738552E-02 (1,6,3) 0.383234 (1,7,2) -0.988220
(1,6,3): (1,5,3) 0.820102 (1,6,2) -0.383234 (1,6,4) 1.95420 (1,7,3) -2.54063
(1,6,4): (1,5,4) 0.468741 (1,6,3) -1.95420 (1,6,5) 8.43502 (1,7,4) -7.05838
(1,6,5): (1,5,5) -4.94973 (1,6,4) -8.43502 (1,6,6) -0.810572 (1,7,5) -21.6283
(1,6,6): (1,5,6) -3.62672 (1,6,5) 0.810572 (1,6,7) 0.812407 (1,7,6) -33.7697
(1,6,7): (1,5,7) -4.93863 (1,6,6) -0.812407 (1,6,8) -8.43559 (1,7,7) -21.6417
(1,6,8): (1,5,8) 0.500748 (1,6,7) 8.43559 (1,6,9) -1.96026 (1,7,8) -7.09926
(1,6,9): (1,5,9) 0.901913 (1,6,8) 1.96026 (1,6,10) -0.390882 (1,7,9) -2.65424
(1,6,10): (1,5,10) 0.704936 (1,6,9) 0.390882 (1,7,10) -1.29338
(1,7,1): (1,6,1) 0.483495 (1,7,2) -0.454685 (1,8,1) -0.256021
(1,7,2): (1,6,2) 0.988220 (1,7,1) 0.454685 (1,7,3) -1.14951 (1,8,2) -0.565197
(1,7,3): (1,6,3) 2.54063 (1,7,2) 1.14951 (1,7,4) -2.40611 (1,8,3) -1.60447
(1,7,4): (1,6,4) 7.05838 (1,7,3) 2.40611 (1,7,5) -4.86366 (1,8,4) -4.91297
(1,7,5): (1,6,5) 21.6283 (1,7,4) 4.86366 (1,7,6) -10.8238 (1,8,5) -15.8820
(1,7,6): (1,6,6) 33.7697 (1,7,5) 10.8238 (1,7,7) 10.8134 (1,8,6) -55.5213
(1,7,7): (1,6,7) 21.6417 (1,7,6) -10.8134 (1,7,8) 4.83459 (1,8,7) -15.8876
(1,7,8): (1,6,8) 7.09926 (1,7,7) -4.83459 (1,7,9) 2.32569 (1,8,8) -4.93267
(1,7,9): (1,6,9) 2.65424 (1,7,8) -2.32569 (1,7,10) 0.948781 (1,8,9) -1.66210
(1,7,10): (1,6,10) 1.29338 (1,7,9) -0.948781 (1,8,10) -0.729036
(1,8,1): (1,7,1) 0.256021 (1,8,2) -0.764486 (1,9,1) 0.233259
(1,8,2): (1,7,2) 0.565197 (1,8,1) 0.764486 (1,8,3) -2.19509 (1,9,2) 0.530911
(1,8,3): (1,7,3) 1.60447 (1,8,2) 2.19509 (1,8,4) -5.74335 (1,9,3) 1.53046
(1,8,4): (1,7,4) 4.91297 (1,8,3) 5.74335 (1,8,5) -15.8263 (1,9,4) 4.72144
(1,8,5): (1,7,5) 15.8820 (1,8,4) 15.8263 (1,8,6) -47.4799 (1,9,5) 15.3987
(1,8,6): (1,7,6) 55.5213 (1,8,5) 47.4799 (1,8,7) 47.4546 (1,9,6) 54.7113
(1,8,7): (1,7,7) 15.8876 (1,8,6) -47.4546 (1,8,8) 15.7767 (1,9,7) 15.4028
(1,8,8): (1,7,8) 4.93267 (1,8,7) -15.7767 (1,8,9) 5.61982 (1,9,8) 4.73792
(1,8,9): (1,7,9) 1.66210 (1,8,8) -5.61982 (1,8,10) 1.88399 (1,9,9) 1.58227
(1,8,10): (1,7,10) 0.729036 (1,8,9) -1.88399 (1,9,10) 0.684246
(1,9,1): (1,8,1) -0.233259 (1,9,2) -0.466128 (1,10,1) 0.466436
(1,9,2): (1,8,2) -0.530911 (1,9,1) 0.466128 (1,9,3) -1.18871 (1,10,2) 0.961982
(1,9,3): (1,8,3) -1.53046 (1,9,2) 1.18871 (1,9,4) -2.51811 (1,10,3) 2.47594
(1,9,4): (1,8,4) -4.72144 (1,9,3) 2.51811 (1,9,5) -5.10049 (1,10,4) 6.82667
(1,9,5): (1,8,5) -15.3987 (1,9,4) 5.10049 (1,9,6) -10.8555 (1,10,5) 20.6079
(1,9,6): (1,8,6) -54.7113 (1,9,5) 10.8555 (1,9,7) 10.8436 (1,10,6) 32.4978
(1,9,7): (1,8,7) -15.4028 (1,9,6) -10.8436 (1,9,8) 5.06951 (1,10,7) 20.6200
(1,9,8): (1,8,8) -4.73792 (1,9,7) -5.06951 (1,9,9) 2.43487 (1,10,8) 6.86505
(1,9,9): (1,8,9) -1.58227 (1,9,8) -2.43487 (1,9,10) 0.983154 (1,10,9) 2.58508
(1,9,10): (1,8,10) -0.684246 (1,9,9) -0.983154 (1,10,10) 1.25913
(1,10,1): (1,9,1) -0.466436 (1,10,2) 2.697841E-02 (1,11,1) 0.314769
(1,10,2): (1,9,2) -0.961982 (1,10,1) -2.697841E-02 (1,10,3) 0.307076 (1,11,2) 0.513795
(1,10,3): (1,9,3) -2.47594 (1,10,2) -0.307076 (1,10,4) 1.68566 (1,11,3) 0.845222
(1,10,4): (1,9,4) -6.82667 (1,10,3) -1.68566 (1,10,5) 7.49235 (1,11,4) 0.630226
(1,10,5): (1,9,5) -20.6079 (1,10,4) -7.49235 (1,10,6) -0.981146 (1,11,5) -4.12971
(1,10,6): (1,9,6) -32.4978 (1,10,5) 0.981146 (1,10,7) 0.980625 (1,11,6) -2.72275
(1,10,7): (1,9,7) -20.6200 (1,10,6) -0.980625 (1,10,8) -7.49610 (1,11,7) -4.11922
(1,10,8): (1,9,8) -6.86505 (1,10,7) 7.49610 (1,10,9) -1.69646 (1,11,8) 0.661045
(1,10,9): (1,9,9) -2.58508 (1,10,8) 1.69646 (1,10,10) -0.322975 (1,11,9) 0.925123
(1,10,10): (1,9,10) -1.25913 (1,10,9) 0.322975 (1,11,10) 0.701271
(1,11,1): (1,10,1) -0.314769 (1,11,2) 0.225439 (1,12,1) 8.675260E-02
(1,11,2): (1,10,2) -0.513795 (1,11,1) -0.225439 (1,11,3) 0.637838 (1,12,2) 8.311719E-02
(1,11,3): (1,10,3) -0.845222 (1,11,2) -0.637838 (1,11,4) 1.46886 (1,12,3) -3.941940E-02
(1,11,4): (1,10,4) -0.630226 (1,11,3) -1.46886 (1,11,5) 2.59995 (1,12,4) -0.619649
(1,11,5): (1,10,5) 4.12971 (1,11,4) -2.59995 (1,11,6) 0.390384 (1,12,5) -2.13527
(1,11,6): (1,10,6) 2.72275 (1,11,5) -0.390384 (1,11,7) -0.380745 (1,12,6) -2.19302
(1,11,7): (1,10,7) 4.11922 (1,11,6) 0.380745 (1,11,8) -2.58253 (1,12,7) -2.13123
(1,11,8): (1,10,8) -0.661045 (1,11,7) 2.58253 (1,11,9) -1.43036 (1,12,8) -0.608345
(1,11,9): (1,10,9) -0.925123 (1,11,8) 1.43036 (1,11,10) -0.546012 (1,12,9) -1.418562E-02
(1,11,10): (1,10,10) -0.701271 (1,11,9) 0.546012 (1,12,10) 0.127437
(1,12,1): (1,11,1) -8.675260E-02 (1,12,2) 0.221798 (1,13,1) -4.993824E-02
(1,12,2): (1,11,2) -8.311719E-02 (1,12,1) -0.221798 (1,12,3) 0.514650 (1,13,2) -0.116132
(1,12,3): (1,11,3) 3.941940E-02 (1,12,2) -0.514650 (1,12,4) 0.883946 (1,13,3) -0.304868
(1,12,4): (1,11,4) 0.619649 (1,12,3) -0.883946 (1,12,5) 1.07800 (1,13,4) -0.709733
(1,12,5): (1,11,5) 2.13527 (1,12,4) -1.07800 (1,12,6) 0.333446 (1,13,5) -1.30139
(1,12,6): (1,11,6) 2.19302 (1,12,5) -0.333446 (1,12,7) -0.319845 (1,13,6) -1.45300
(1,12,7): (1,11,7) 2.13123 (1,12,6) 0.319845 (1,12,8) -1.05347 (1,13,7) -1.30244
(1,12,8): (1,11,8) 0.608345 (1,12,7) 1.05347 (1,12,9) -0.831555 (1,13,8) -0.713158
(1,12,9): (1,11,9) 1.418562E-02 (1,12,8) 0.831555 (1,12,10) -0.403812 (1,13,9) -0.315628
(1,12,10): (1,11,10) -0.127437 (1,12,9) 0.403812 (1,13,10) -0.149817
(1,13,1): (1,12,1) 4.993824E-02 (1,13,2) 0.155535 (1,14,1) -8.277307E-02
(1,13,2): (1,12,2) 0.116132 (1,13,1) -0.155535 (1,13,3) 0.325528 (1,14,2) -0.142236
(1,13,3): (1,12,3) 0.304868 (1,13,2) -0.325528 (1,13,4) 0.478407 (1,14,3) -0.279126
(1,13,4): (1,12,4) 0.709733 (1,13,3) -0.478407 (1,13,5) 0.487574 (1,14,4) -0.505254
(1,13,5): (1,12,5) 1.30139 (1,13,4) -0.487574 (1,13,6) 0.183382 (1,14,5) -0.759987
(1,13,6): (1,12,6) 1.45300 (1,13,5) -0.183382 (1,13,7) -0.170837 (1,14,6) -0.850564
(1,13,7): (1,12,7) 1.30244 (1,13,6) 0.170837 (1,13,8) -0.465554 (1,14,7) -0.762815
(1,13,8): (1,12,8) 0.713158 (1,13,7) 0.465554 (1,13,9) -0.433575 (1,14,8) -0.513488
(1,13,9): (1,12,9) 0.315628 (1,13,8) 0.433575 (1,13,10) -0.237859 (1,14,9) -0.299838
(1,13,10): (1,12,10) 0.149817 (1,13,9) 0.237859 (1,14,10) -0.191287
(1,14,1): (1,13,1) 8.277307E-02 (1,14,2) 9.606427E-02 (1,15,1) -5.350405E-02
(1,14,2): (1,13,2) 0.142236 (1,14,1) -9.606427E-02 (1,14,3) 0.188575 (1,15,2) -8.489420E-02
(1,14,3): (1,13,3) 0.279126 (1,14,2) -0.188575 (1,14,4) 0.252337 (1,15,3) -0.151343
(1,14,4): (1,13,4) 0.505254 (1,14,3) -0.252337 (1,14,5) 0.233505 (1,15,4) -0.249130
(1,14,5): (1,13,5) 0.759987 (1,14,4) -0.233505 (1,14,6) 9.337866E-02 (1,15,5) -0.347184
(1,14,6): (1,13,6) 0.850564 (1,14,5) -9.337866E-02 (1,14,7) -8.365381E-02 (1,15,6) -0.385437
(1,14,7): (1,13,7) 0.762815 (1,14,6) 8.365381E-02 (1,14,8) -0.216936 (1,15,7) -0.349202
(1,14,8): (1,13,8) 0.513488 (1,14,7) 0.216936 (1,14,9) -0.220091 (1,15,8) -0.254872
(1,14,9): (1,13,9) 0.299838 (1,14,8) 0.220091 (1,14,10) -0.129374 (1,15,9) -0.165146
(1,14,10): (1,13,10) 0.191287 (1,14,9) 0.129374 (1,15,10) -0.115460
(1,15,1): (1,14,1) 5.350405E-02 (1,15,2) 6.467065E-02
(1,15,2): (1,14,2) 8.489420E-02 (1,15,1) -6.467065E-02 (1,15,3) 0.122102
(1,15,3): (1,14,3) 0.151343 (1,15,2) -0.122102 (1,15,4) 0.154548
(1,15,4): (1,14,4) 0.249130 (1,15,3) -0.154548 (1,15,5) 0.135560
(1,15,5): (1,14,5) 0.347184 (1,15,4) -0.135560 (1,15,6) 5.523361E-02
(1,15,6): (1,14,6) 0.385437 (1,15,5) -5.523361E-02 (1,15,7) -4.752494E-02
(1,15,7): (1,14,7) 0.349202 (1,15,6) 4.752494E-02 (1,15,8) -0.122728
(1,15,8): (1,14,8) 0.254872 (1,15,7) 0.122728 (1,15,9) -0.130396
(1,15,9): (1,14,9) 0.165146 (1,15,8) 0.130396 (1,15,10) -7.970482E-02
(1,15,10): (1,14,10) 0.115460 (1,15,9) 7.970482E-02

 WEL PACKAGE (WEL-1) FLOW RATES   PERIOD      2   STEP       85
 ----------------------------------------------------------------------------------------
   NUMBER   CELLID                    RATE       NAME                                    
 ----------------------------------------------------------------------------------------
     1      (1,8,6)              -205.22458      WEL                                     
 ----------------------------------------------------------------------------------------




 DRN PACKAGE (DRN-0) FLOW RATES   PERIOD      2   STEP       85
 ----------------------------------------------------------------------------------------
   NUMBER   CELLID                    RATE       NAME                                    
 ----------------------------------------------------------------------------------------
     1      (1,1,1)               0.0000000      SURF                                    
     2      (1,1,2)               0.0000000      SURF                                    
     3      (1,1,3)               0.0000000      SURF                                    
     4      (1,1,4)               0.0000000      SURF                                    
     5      (1,1,5)               0.0000000      SURF                                    
     6      (1,1,6)               0.0000000      SURF                                    
     7      (1,1,7)               0.0000000      SURF                                    
     8      (1,1,8)               0.0000000      SURF                                    
     9      (1,1,9)               0.0000000      SURF                                    
     10     (1,1,10)              0.0000000      SURF                                    
     11     (1,2,1)               0.0000000      SURF                                    
     12     (1,2,2)               0.0000000      SURF                                    
     13     (1,2,3)               0.0000000      SURF                                    
     14     (1,2,4)               0.0000000      SURF                                    
     15     (1,2,5)               0.0000000      SURF                                    
     16     (1,2,6)               0.0000000      SURF                                    
     17     (1,2,7)               0.0000000      SURF                                    
     18     (1,2,8)               0.0000000      SURF                                    
     19     (1,2,9)               0.0000000      SURF                                    
     20     (1,2,10)              0.0000000      SURF                                    
     21     (1,3,1)               0.0000000      SURF                                    
     22     (1,3,2)               0.0000000      SURF                                    
     23     (1,3,3)               0.0000000      SURF                                    
     24     (1,3,4)               0.0000000      SURF                                    
     25     (1,3,5)               0.0000000      SURF                                    
     26     (1,3,6)               0.0000000      SURF                                    
     27     (1,3,7)               0.0000000      SURF                                    
     28     (1,3,8)               0.0000000      SURF                                    
     29     (1,3,9)               0.0000000      SURF                                    
     30     (1,3,10)              0.0000000      SURF                                    
     31     (1,4,1)               0.0000000      SURF                                    
     32     (1,4,2)               0.0000000      SURF                                    
     33     (1,4,3)               0.0000000      SURF                                    
     34     (1,4,4)               0.0000000      SURF                                    
     35     (1,4,5)               0.0000000      SURF                                    
     36     (1,4,6)               0.0000000      SURF                                    
     37     (1,4,7)               0.0000000      SURF                                    
     38     (1,4,8)               0.0000000      SURF                                    
     39     (1,4,9)               0.0000000      SURF                                    
     40     (1,4,10)              0.0000000      SURF                                    
     41     (1,5,1)               0.0000000      SURF                                    
     42     (1,5,2)               0.0000000      SURF                                    
     43     (1,5,3)               0.0000000      SURF                                    
     44     (1,5,4)               0.0000000      SURF                                    
     45     (1,5,5)               0.0000000      SURF                                    
     46     (1,5,6)               0.0000000      SURF                                    
     47     (1,5,7)               0.0000000      SURF                                    
     48     (1,5,8)               0.0000000      SURF                                    
     49     (1,5,9)               0.0000000      SURF                                    
     50     (1,5,10)              0.0000000      SURF                                    
     51     (1,6,1)               0.0000000      SURF                                    
     52     (1,6,2)               0.0000000      SURF                                    
     53     (1,6,3)               0.0000000      SURF                                    
     54     (1,6,4)               0.0000000      SURF                                    
     55     (1,6,5)               0.0000000      SURF                                    
     56     (1,6,6)               0.0000000      SURF                                    
     57     (1,6,7)              -3.11352778E-07 SURF                                    
     58     (1,6,8)               0.0000000      SURF                                    
     59     (1,6,9)               0.0000000      SURF                                    
     60     (1,6,10)              0.0000000      SURF                                    
     61     (1,7,1)               0.0000000      SURF                                    
     62     (1,7,2)               0.0000000      SURF                                    
     63     (1,7,3)               0.0000000      SURF                                    
     64     (1,7,4)               0.0000000      SURF                                    
     65     (1,7,5)               0.0000000      SURF                                    
     66     (1,7,6)               0.0000000      SURF                                    
     67     (1,7,7)               0.0000000      SURF                                    
     68     (1,7,8)               0.0000000      SURF                                    
     69     (1,7,9)               0.0000000      SURF                                    
     70     (1,7,10)              0.0000000      SURF                                    
     71     (1,8,1)               0.0000000      SURF                                    
     72     (1,8,2)               0.0000000      SURF                                    
     73     (1,8,3)               0.0000000      SURF                                    
     74     (1,8,4)               0.0000000      SURF                                    
     75     (1,8,5)               0.0000000      SURF                                    
     76     (1,8,6)               0.0000000      SURF                                    
     77     (1,8,7)               0.0000000      SURF                                    
     78     (1,8,8)               0.0000000      SURF                                    
     79     (1,8,9)               0.0000000      SURF                                    
     80     (1,8,10)              0.0000000      SURF                                    
     81     (1,9,1)               0.0000000      SURF                                    
     82     (1,9,2)               0.0000000      SURF                                    
     83     (1,9,3)               0.0000000      SURF                                    
     84     (1,9,4)               0.0000000      SURF                                    
     85     (1,9,5)               0.0000000      SURF                                    
     86     (1,9,6)               0.0000000      SURF                                    
     87     (1,9,7)               0.0000000      SURF                                    
     88     (1,9,8)               0.0000000      SURF                                    
     89     (1,9,9)               0.0000000      SURF                                    
     90     (1,9,10)              0.0000000      SURF                                    
     91     (1,10,1)              0.0000000      SURF                                    
     92     (1,10,2)              0.0000000      SURF                                    
     93     (1,10,3)              0.0000000      SURF                                    
     94     (1,10,4)              0.0000000      SURF                                    
     95     (1,10,5)              0.0000000      SURF                                    
     96     (1,10,6)              0.0000000      SURF                                    
     97     (1,10,7)              0.0000000      SURF                                    
     98     (1,10,8)              0.0000000      SURF                                    
     99     (1,10,9)              0.0000000      SURF                                    
    100     (1,10,10)             0.0000000      SURF                                    
    101     (1,11,1)              0.0000000      SURF                                    
    102     (1,11,2)              0.0000000      SURF                                    
    103     (1,11,3)              0.0000000      SURF                                    
    104     (1,11,4)              0.0000000      SURF                                    
    105     (1,11,5)              0.0000000      SURF                                    
    106     (1,11,6)              0.0000000      SURF                                    
    107     (1,11,7)              0.0000000      SURF                                    
    108     (1,11,8)              0.0000000      SURF                                    
    109     (1,11,9)              0.0000000      SURF                                    
    110     (1,11,10)             0.0000000      SURF                                    
    111     (1,12,1)              0.0000000      SURF                                    
    112     (1,12,2)              0.0000000      SURF                                    
    113     (1,12,3)              0.0000000      SURF                                    
    114     (1,12,4)              0.0000000      SURF                                    
    115     (1,12,5)              0.0000000      SURF                                    
    116     (1,12,6)              0.0000000      SURF                                    
    117     (1,12,7)              0.0000000      SURF                                    
    118     (1,12,8)              0.0000000      SURF                                    
    119     (1,12,9)              0.0000000      SURF                                    
    120     (1,12,10)             0.0000000      SURF                                    
    121     (1,13,1)              0.0000000      SURF                                    
    122     (1,13,2)              0.0000000      SURF                                    
    123     (1,13,3)              0.0000000      SURF                                    
    124     (1,13,4)              0.0000000      SURF                                    
    125     (1,13,5)              0.0000000      SURF                                    
    126     (1,13,6)              0.0000000      SURF                                    
    127     (1,13,7)              0.0000000      SURF                                    
    128     (1,13,8)              0.0000000      SURF                                    
    129     (1,13,9)              0.0000000      SURF                                    
    130     (1,13,10)             0.0000000      SURF                                    
    131     (1,14,1)              0.0000000      SURF                                    
    132     (1,14,2)              0.0000000      SURF                                    
    133     (1,14,3)              0.0000000      SURF                                    
    134     (1,14,4)              0.0000000      SURF                                    
    135     (1,14,5)              0.0000000      SURF                                    
    136     (1,14,6)              0.0000000      SURF                                    
    137     (1,14,7)              0.0000000      SURF                                    
    138     (1,14,8)              0.0000000      SURF                                    
    139     (1,14,9)              0.0000000      SURF                                    
    140     (1,14,10)             0.0000000      SURF                                    
    141     (1,15,1)              0.0000000      SURF                                    
    142     (1,15,2)              0.0000000      SURF                                    
    143     (1,15,3)              0.0000000      SURF                                    
    144     (1,15,4)              0.0000000      SURF                                    
    145     (1,15,5)              0.0000000      SURF                                    
    146     (1,15,6)              0.0000000      SURF                                    
    147     (1,15,7)              0.0000000      SURF                                    
    148     (1,15,8)              0.0000000      SURF                                    
    149     (1,15,9)              0.0000000      SURF                                    
    150     (1,15,10)             0.0000000      SURF                                    
 ----------------------------------------------------------------------------------------




 API PACKAGE (MAR) FLOW RATES   PERIOD      2   STEP       85
 -----------------------------------------------
   NUMBER   CELLID                    RATE      
 -----------------------------------------------
     1      (1,6,5)               35.828321     
     2      (1,6,6)               35.828321     
     3      (1,6,7)               35.828321     
     4      (1,10,5)              32.579872     
     5      (1,10,6)              32.579872     
     6      (1,10,7)              32.579872     
 -----------------------------------------------



1
  HEAD IN LAYER   1 AT END OF TIME STEP  85 IN STRESS PERIOD    2
  ---------------------------------------------------------------------------

            1           2           3           4           5           6           7           8           9          10
 ........................................................................................................................
   1   1.9171E-02  2.6073E-02  3.9015E-02  5.5273E-02  6.9467E-02  7.5272E-02  7.0393E-02  5.7691E-02  4.4150E-02  3.5847E-02
   2   2.4953E-02  3.5056E-02  5.4760E-02  8.0960E-02  0.1051      0.1148      0.1063      8.4009E-02  6.1377E-02  4.8045E-02
   3   3.3902E-02  5.0082E-02  8.3769E-02  0.1331      0.1834      0.2023      0.1848      0.1370      9.2598E-02  6.8211E-02
   4   3.9519E-02  6.2601E-02  0.1160      0.2076      0.3194      0.3543      0.3210      0.2119      0.1260      8.4330E-02
   5   3.1101E-02  5.5131E-02  0.1230      0.2786      0.5499      0.5942      0.5510      0.2818      0.1306      7.2628E-02
   6  -8.6628E-04  3.8704E-03  4.2033E-02  0.2330      0.9998      0.9261       1.000      0.2331      4.1569E-02  2.6422E-03
   7  -4.9220E-02 -9.4913E-02 -0.2110     -0.4568     -0.9664      -2.165     -0.9674     -0.4606     -0.2228     -0.1267    
   8  -7.4949E-02 -0.1520     -0.3749     -0.9716      -2.725      -9.251      -2.726     -0.9777     -0.3928     -0.2005    
   9  -5.1502E-02 -9.8356E-02 -0.2184     -0.4758      -1.011      -2.219      -1.013     -0.4800     -0.2308     -0.1312    
  10  -4.8359E-03 -2.1375E-03  2.8483E-02  0.1938      0.8823      0.7922      0.8823      0.1934      2.7023E-02 -5.1875E-03
  11   2.6558E-02  4.8992E-02  0.1121      0.2553      0.5028      0.5399      0.5038      0.2579      0.1185      6.4490E-02
  12   3.5202E-02  5.7256E-02  0.1082      0.1949      0.2995      0.3318      0.3009      0.1986      0.1171      7.7136E-02
  13   3.0226E-02  4.5709E-02  7.8010E-02  0.1253      0.1732      0.1912      0.1744      0.1287      8.5853E-02  6.2269E-02
  14   2.1974E-02  3.1550E-02  5.0313E-02  7.5358E-02  9.8481E-02  0.1077      9.9443E-02  7.7963E-02  5.6124E-02  4.3259E-02
  15   1.6635E-02  2.3087E-02  3.5254E-02  5.0631E-02  6.4101E-02  6.9586E-02  6.4867E-02  5.2673E-02  3.9702E-02  3.1763E-02

 HEAD WILL BE SAVED ON UNIT 1100 AT END OF TIME STEP   85, STRESS PERIOD    2


  VOLUME BUDGET FOR ENTIRE MODEL AT END OF TIME STEP   85, STRESS PERIOD   2
  ---------------------------------------------------------------------------------------------------

     CUMULATIVE VOLUME      L**3       RATES FOR THIS TIME STEP      L**3/T          PACKAGE NAME    
     ------------------                 ------------------------                     ----------------

           IN:                                      IN:
           ---                                      ---
              STO-SS =          25.1650                STO-SS =       8.0930E-03     STORAGE                          
              STO-SY =       61934.2708                STO-SY =          16.7778     STORAGE                          
                 WEL =           0.0000                   WEL =           0.0000     WEL-1                            
                 DRN =           0.0000                   DRN =           0.0000     DRN-0                            
                 API =      173923.5319                   API =         205.2246     MAR                              
                 CHD =       2.0279E-08                   CHD =           0.0000     CHD_0                            

            TOTAL IN =      235882.9678              TOTAL IN =         222.0105

          OUT:                                     OUT:
          ----                                     ----
              STO-SS =          21.6847                STO-SS =       8.4886E-03     STORAGE                          
              STO-SY =       42368.9446                STO-SY =          16.7774     STORAGE                          
                 WEL =      193492.3382                   WEL =         205.2246     WEL-1                            
                 DRN =       2.8219E-04                   DRN =       3.1135E-07     DRN-0                            
                 API =           0.0000                   API =           0.0000     MAR                              
                 CHD =       2.0705E-08                   CHD =           0.0000     CHD_0                            

           TOTAL OUT =      235882.9678             TOTAL OUT =         222.0105

            IN - OUT =      -9.7614E-07              IN - OUT =       7.8072E-10

 PERCENT DISCREPANCY =          -0.00     PERCENT DISCREPANCY =           0.00




         TIME SUMMARY AT END OF TIME STEP   85 IN STRESS PERIOD    2
                    SECONDS     MINUTES      HOURS       DAYS        YEARS
                    -----------------------------------------------------------
   TIME STEP LENGTH 8.64000E+05  14400.      240.00      10.000     2.73785E-02
 STRESS PERIOD TIME 7.34400E+07 1.22400E+06  20400.      850.00      2.3272    
         TOTAL TIME 7.35264E+07 1.22544E+06  20424.      851.00      2.3299    


end timestep


start timestep kper="2" kstp="86" mode="normal"

 UBDSV1 SAVING           STO-SS ON UNIT   1099 AT TIME STEP     86, STRESS PERIOD      2
 UBDSV1 SAVING           STO-SY ON UNIT   1099 AT TIME STEP     86, STRESS PERIOD      2
 UBDSV1 SAVING     FLOW-JA-FACE ON UNIT   1099 AT TIME STEP     86, STRESS PERIOD      2
 UBDSV06 SAVING       DATA-SPDIS IN MODEL GWF              PACKAGE NPF             CONNECTED TO MODEL GWF              PACKAGE NPF              ON UNIT   1099 AT TIME STEP     86, STRESS PERIOD      2
 UBDSV06 SAVING              WEL IN MODEL GWF              PACKAGE GWF             CONNECTED TO MODEL GWF              PACKAGE WEL-1            ON UNIT   1099 AT TIME STEP     86, STRESS PERIOD      2
 UBDSV06 SAVING              DRN IN MODEL GWF              PACKAGE GWF             CONNECTED TO MODEL GWF              PACKAGE DRN-0            ON UNIT   1099 AT TIME STEP     86, STRESS PERIOD      2
 UBDSV06 SAVING              API IN MODEL GWF              PACKAGE GWF             CONNECTED TO MODEL GWF              PACKAGE MAR              ON UNIT   1099 AT TIME STEP     86, STRESS PERIOD      2
 UBDSV06 SAVING              CHD IN MODEL GWF              PACKAGE GWF             CONNECTED TO MODEL GWF              PACKAGE CHD_0            ON UNIT   1099 AT TIME STEP     86, STRESS PERIOD      2

    CALCULATED INTERCELL FLOW FOR PERIOD 2 STEP 86
(1,1,1): (1,1,2) 7.038049E-02 (1,2,1) 5.822903E-02
(1,1,2): (1,1,1) -7.038049E-02 (1,1,3) 0.131964 (1,2,2) 9.044470E-02
(1,1,3): (1,1,2) -0.131964 (1,1,4) 0.165806 (1,2,3) 0.158694
(1,1,4): (1,1,3) -0.165806 (1,1,5) 0.144814 (1,2,4) 0.259475
(1,1,5): (1,1,4) -0.144814 (1,1,6) 5.932296E-02 (1,2,5) 0.361115
(1,1,6): (1,1,5) -5.932296E-02 (1,1,7) -4.957471E-02 (1,2,6) 0.400937
(1,1,7): (1,1,6) 4.957471E-02 (1,1,8) -0.129257 (1,2,7) 0.363462
(1,1,8): (1,1,7) 0.129257 (1,1,9) -0.137736 (1,2,8) 0.265952
(1,1,9): (1,1,8) 0.137736 (1,1,10) -8.439945E-02 (1,2,9) 0.173769
(1,1,10): (1,1,9) 8.439945E-02 (1,2,10) 0.122956
(1,2,1): (1,1,1) -5.822903E-02 (1,2,2) 0.102600 (1,3,1) 8.954239E-02
(1,2,2): (1,1,2) -9.044470E-02 (1,2,1) -0.102600 (1,2,3) 0.200242 (1,3,2) 0.150676
(1,2,3): (1,1,3) -0.158694 (1,2,2) -0.200242 (1,2,4) 0.266594 (1,3,3) 0.292146
(1,2,4): (1,1,4) -0.259475 (1,2,3) -0.266594 (1,2,5) 0.246341 (1,3,4) 0.527944
(1,2,5): (1,1,5) -0.361115 (1,2,4) -0.246341 (1,2,6) 9.902897E-02 (1,3,5) 0.796519
(1,2,6): (1,1,6) -0.400937 (1,2,5) -9.902897E-02 (1,2,7) -8.693597E-02 (1,3,6) 0.892787
(1,2,7): (1,1,7) -0.363462 (1,2,6) 8.693597E-02 (1,2,8) -0.226638 (1,3,7) 0.799821
(1,2,8): (1,1,8) -0.265952 (1,2,7) 0.226638 (1,2,9) -0.229886 (1,3,8) 0.537218
(1,2,9): (1,1,9) -0.173769 (1,2,8) 0.229886 (1,2,10) -0.135193 (1,3,9) 0.314635
(1,2,10): (1,1,10) -0.122956 (1,2,9) 0.135193 (1,3,10) 0.202509
(1,3,1): (1,2,1) -8.954239E-02 (1,3,2) 0.163742 (1,4,1) 5.443796E-02
(1,3,2): (1,2,2) -0.150676 (1,3,1) -0.163742 (1,3,3) 0.341781 (1,4,2) 0.123663
(1,3,3): (1,2,3) -0.292146 (1,3,2) -0.341781 (1,3,4) 0.502333 (1,4,3) 0.323394
(1,3,4): (1,2,4) -0.527944 (1,3,3) -0.502333 (1,3,5) 0.514192 (1,4,4) 0.757698
(1,3,5): (1,2,5) -0.796519 (1,3,4) -0.514192 (1,3,6) 0.194662 (1,4,5) 1.40101
(1,3,6): (1,2,6) -0.892787 (1,3,5) -0.194662 (1,3,7) -0.179274 (1,4,6) 1.57147
(1,3,7): (1,2,7) -0.799821 (1,3,6) 0.179274 (1,3,8) -0.488461 (1,4,7) 1.40236
(1,3,8): (1,2,8) -0.537218 (1,3,7) 0.488461 (1,3,9) -0.452285 (1,4,8) 0.761742
(1,3,9): (1,2,9) -0.314635 (1,3,8) 0.452285 (1,3,10) -0.247246 (1,4,9) 0.335191
(1,3,10): (1,2,10) -0.202509 (1,3,9) 0.247246 (1,4,10) 0.159283
(1,4,1): (1,3,1) -5.443796E-02 (1,4,2) 0.233041 (1,5,1) -8.882361E-02
(1,4,2): (1,3,2) -0.123663 (1,4,1) -0.233041 (1,4,3) 0.541938 (1,5,2) -8.023148E-02
(1,4,3): (1,3,3) -0.323394 (1,4,2) -0.541938 (1,4,4) 0.937380 (1,5,3) 6.527919E-02
(1,4,4): (1,3,4) -0.757698 (1,4,3) -0.937380 (1,4,5) 1.15604 (1,5,4) 0.723666
(1,4,5): (1,3,5) -1.40101 (1,4,4) -1.15604 (1,4,6) 0.363259 (1,5,5) 2.42598
(1,4,6): (1,3,6) -1.57147 (1,4,5) -0.363259 (1,4,7) -0.346509 (1,5,6) 2.53620
(1,4,7): (1,3,7) -1.40236 (1,4,6) 0.346509 (1,4,8) -1.12744 (1,5,7) 2.42173
(1,4,8): (1,3,8) -0.761742 (1,4,7) 1.12744 (1,4,9) -0.879314 (1,5,8) 0.711827
(1,4,9): (1,3,9) -0.335191 (1,4,8) 0.879314 (1,4,10) -0.423305 (1,5,9) 3.913167E-02
(1,4,10): (1,3,10) -0.159283 (1,4,9) 0.423305 (1,5,10) -0.125091
(1,5,1): (1,4,1) 8.882361E-02 (1,5,2) 0.241647 (1,6,1) -0.326674
(1,5,2): (1,4,2) 8.023148E-02 (1,5,1) -0.241647 (1,5,3) 0.688272 (1,6,2) -0.522483
(1,5,3): (1,4,3) -6.527919E-02 (1,5,2) -0.688272 (1,5,4) 1.60123 (1,6,3) -0.828505
(1,5,4): (1,4,4) -0.723666 (1,5,3) -1.60123 (1,5,5) 2.86499 (1,6,4) -0.477410
(1,5,5): (1,4,5) -2.42598 (1,5,4) -2.86499 (1,5,6) 0.471635 (1,6,5) 4.94320
(1,5,6): (1,4,6) -2.53620 (1,5,5) -0.471635 (1,5,7) -0.459041 (1,6,6) 3.62131
(1,5,7): (1,4,7) -2.42173 (1,5,6) 0.459041 (1,5,8) -2.84376 (1,6,7) 4.93174
(1,5,8): (1,4,8) -0.711827 (1,5,7) 2.84376 (1,5,9) -1.55738 (1,6,8) -0.510258
(1,5,9): (1,4,9) -3.913167E-02 (1,5,8) 1.55738 (1,5,10) -0.588255 (1,6,9) -0.911965
(1,5,10): (1,4,10) 0.125091 (1,5,9) 0.588255 (1,6,10) -0.714734
(1,6,1): (1,5,1) 0.326674 (1,6,2) 4.637868E-02 (1,7,1) -0.488973
(1,6,2): (1,5,2) 0.522483 (1,6,1) -4.637868E-02 (1,6,3) 0.382665 (1,7,2) -0.994766
(1,6,3): (1,5,3) 0.828505 (1,6,2) -0.382665 (1,6,4) 1.95619 (1,7,3) -2.54881
(1,6,4): (1,5,4) 0.477410 (1,6,3) -1.95619 (1,6,5) 8.44112 (1,7,4) -7.06812
(1,6,5): (1,5,5) -4.94320 (1,6,4) -8.44112 (1,6,6) -0.807892 (1,7,5) -21.6400
(1,6,6): (1,5,6) -3.62131 (1,6,5) 0.807892 (1,6,7) 0.809459 (1,7,6) -33.7795
(1,6,7): (1,5,7) -4.93174 (1,6,6) -0.809459 (1,6,8) -8.44221 (1,7,7) -21.6537
(1,6,8): (1,5,8) 0.510258 (1,6,7) 8.44221 (1,6,9) -1.96321 (1,7,8) -7.10976
(1,6,9): (1,5,9) 0.911965 (1,6,8) 1.96321 (1,6,10) -0.391633 (1,7,9) -2.66390
(1,6,10): (1,5,10) 0.714734 (1,6,9) 0.391633 (1,7,10) -1.30240
(1,7,1): (1,6,1) 0.488973 (1,7,2) -0.456730 (1,8,1) -0.258352
(1,7,2): (1,6,2) 0.994766 (1,7,1) 0.456730 (1,7,3) -1.15159 (1,8,2) -0.568184
(1,7,3): (1,6,3) 2.54881 (1,7,2) 1.15159 (1,7,4) -2.40524 (1,8,3) -1.60870
(1,7,4): (1,6,4) 7.06812 (1,7,3) 2.40524 (1,7,5) -4.85829 (1,8,4) -4.91860
(1,7,5): (1,6,5) 21.6400 (1,7,4) 4.85829 (1,7,6) -10.8182 (1,8,5) -15.8873
(1,7,6): (1,6,6) 33.7795 (1,7,5) 10.8182 (1,7,7) 10.8072 (1,8,6) -55.5153
(1,7,7): (1,6,7) 21.6537 (1,7,6) -10.8072 (1,7,8) 4.82823 (1,8,7) -15.8929
(1,7,8): (1,6,8) 7.10976 (1,7,7) -4.82823 (1,7,9) 2.32311 (1,8,8) -4.93858
(1,7,9): (1,6,9) 2.66390 (1,7,8) -2.32311 (1,7,10) 0.948520 (1,8,9) -1.66692
(1,7,10): (1,6,10) 1.30240 (1,7,9) -0.948520 (1,8,10) -0.733094
(1,8,1): (1,7,1) 0.258352 (1,8,2) -0.767188 (1,9,1) 0.235276
(1,8,2): (1,7,2) 0.568184 (1,8,1) 0.767188 (1,8,3) -2.19841 (1,9,2) 0.532869
(1,8,3): (1,7,3) 1.60870 (1,8,2) 2.19841 (1,8,4) -5.74372 (1,9,3) 1.53146
(1,8,4): (1,7,4) 4.91860 (1,8,3) 5.74372 (1,8,5) -15.8191 (1,9,4) 4.71877
(1,8,5): (1,7,5) 15.8873 (1,8,4) 15.8191 (1,8,6) -47.4569 (1,9,5) 15.3864
(1,8,6): (1,7,6) 55.5153 (1,8,5) 47.4569 (1,8,7) 47.4305 (1,9,6) 54.6759
(1,8,7): (1,7,7) 15.8929 (1,8,6) -47.4305 (1,8,8) 15.7682 (1,9,7) 15.3904
(1,8,8): (1,7,8) 4.93858 (1,8,7) -15.7682 (1,8,9) 5.61807 (1,9,8) 4.73552
(1,8,9): (1,7,9) 1.66692 (1,8,8) -5.61807 (1,8,10) 1.88445 (1,9,9) 1.58384
(1,8,10): (1,7,10) 0.733094 (1,8,9) -1.88445 (1,9,10) 0.687054
(1,9,1): (1,8,1) -0.235276 (1,9,2) -0.468887 (1,10,1) 0.471721
(1,9,2): (1,8,2) -0.532869 (1,9,1) 0.468887 (1,9,3) -1.19297 (1,10,2) 0.967914
(1,9,3): (1,8,3) -1.53146 (1,9,2) 1.19297 (1,9,4) -2.52207 (1,10,3) 2.48200
(1,9,4): (1,8,4) -4.71877 (1,9,3) 2.52207 (1,9,5) -5.10246 (1,10,4) 6.82958
(1,9,5): (1,8,5) -15.3864 (1,9,4) 5.10246 (1,9,6) -10.8509 (1,10,5) 20.5974
(1,9,6): (1,8,6) -54.6759 (1,9,5) 10.8509 (1,9,7) 10.8384 (1,10,6) 32.4789
(1,9,7): (1,8,7) -15.3904 (1,9,6) -10.8384 (1,9,8) 5.07048 (1,10,7) 20.6097
(1,9,8): (1,8,8) -4.73552 (1,9,7) -5.07048 (1,9,9) 2.43709 (1,10,8) 6.86870
(1,9,9): (1,8,9) -1.58384 (1,9,8) -2.43709 (1,9,10) 0.984873 (1,10,9) 2.59259
(1,9,10): (1,8,10) -0.687054 (1,9,9) -0.984873 (1,10,10) 1.26742
(1,10,1): (1,9,1) -0.471721 (1,10,2) 2.484652E-02 (1,11,1) 0.320831
(1,10,2): (1,9,2) -0.967914 (1,10,1) -2.484652E-02 (1,10,3) 0.302890 (1,11,2) 0.521201
(1,10,3): (1,9,3) -2.48200 (1,10,2) -0.302890 (1,10,4) 1.67844 (1,11,3) 0.855017
(1,10,4): (1,9,4) -6.82958 (1,10,3) -1.67844 (1,10,5) 7.47735 (1,11,4) 0.643725
(1,10,5): (1,9,5) -20.5974 (1,10,4) -7.47735 (1,10,6) -0.983429 (1,11,5) -4.10651
(1,10,6): (1,9,6) -32.4789 (1,10,5) 0.983429 (1,10,7) 0.982633 (1,11,6) -2.69895
(1,10,7): (1,9,7) -20.6097 (1,10,6) -0.982633 (1,10,8) -7.48162 (1,11,7) -4.09568
(1,10,8): (1,9,8) -6.86870 (1,10,7) 7.48162 (1,10,9) -1.69023 (1,11,8) 0.675375
(1,10,9): (1,9,9) -2.59259 (1,10,8) 1.69023 (1,10,10) -0.320391 (1,11,9) 0.936574
(1,10,10): (1,9,10) -1.26742 (1,10,9) 0.320391 (1,11,10) 0.711511
(1,11,1): (1,10,1) -0.320831 (1,11,2) 0.224629 (1,12,1) 9.117267E-02
(1,11,2): (1,10,2) -0.521201 (1,11,1) -0.224629 (1,11,3) 0.635999 (1,12,2) 8.873725E-02
(1,11,3): (1,10,3) -0.855017 (1,11,2) -0.635999 (1,11,4) 1.46540 (1,12,3) -3.151478E-02
(1,11,4): (1,10,4) -0.643725 (1,11,3) -1.46540 (1,11,5) 2.59465 (1,12,4) -0.608320
(1,11,5): (1,10,5) 4.10651 (1,11,4) -2.59465 (1,11,6) 0.388944 (1,12,5) -2.11930
(1,11,6): (1,10,6) 2.69895 (1,11,5) -0.388944 (1,11,7) -0.379246 (1,12,6) -2.17574
(1,11,7): (1,10,7) 4.09568 (1,11,6) 0.379246 (1,11,8) -2.57724 (1,12,7) -2.11502
(1,11,8): (1,10,8) -0.675375 (1,11,7) 2.57724 (1,11,9) -1.42707 (1,12,8) -0.596415
(1,11,9): (1,10,9) -0.936574 (1,11,8) 1.42707 (1,11,10) -0.544607 (1,12,9) -5.068921E-03
(1,11,10): (1,10,10) -0.711511 (1,11,9) 0.544607 (1,12,10) 0.135203
(1,12,1): (1,11,1) -9.117267E-02 (1,12,2) 0.222191 (1,13,1) -4.798693E-02
(1,12,2): (1,11,2) -8.873725E-02 (1,12,1) -0.222191 (1,12,3) 0.515111 (1,13,2) -0.113539
(1,12,3): (1,11,3) 3.151478E-02 (1,12,2) -0.515111 (1,12,4) 0.883900 (1,13,3) -0.301030
(1,12,4): (1,11,4) 0.608320 (1,12,3) -0.883900 (1,12,5) 1.07723 (1,13,4) -0.704101
(1,12,5): (1,11,5) 2.11930 (1,12,4) -1.07723 (1,12,6) 0.333294 (1,13,5) -1.29376
(1,12,6): (1,11,6) 2.17574 (1,12,5) -0.333294 (1,12,7) -0.319394 (1,13,6) -1.44465
(1,12,7): (1,11,7) 2.11502 (1,12,6) 0.319394 (1,12,8) -1.05233 (1,13,7) -1.29471
(1,12,8): (1,11,8) 0.596415 (1,12,7) 1.05233 (1,12,9) -0.831056 (1,13,8) -0.707269
(1,12,9): (1,11,9) 5.068921E-03 (1,12,8) 0.831056 (1,12,10) -0.403773 (1,13,9) -0.311244
(1,12,10): (1,11,10) -0.135203 (1,12,9) 0.403773 (1,13,10) -0.146214
(1,13,1): (1,12,1) 4.798693E-02 (1,13,2) 0.156568 (1,14,1) -8.257534E-02
(1,13,2): (1,12,2) 0.113539 (1,13,1) -0.156568 (1,13,3) 0.327229 (1,14,2) -0.141861
(1,13,3): (1,12,3) 0.301030 (1,13,2) -0.327229 (1,13,4) 0.480136 (1,14,3) -0.278388
(1,13,4): (1,12,4) 0.704101 (1,13,3) -0.480136 (1,13,5) 0.488753 (1,14,4) -0.503967
(1,13,5): (1,12,5) 1.29376 (1,13,4) -0.488753 (1,13,6) 0.183935 (1,14,5) -0.758104
(1,13,6): (1,12,6) 1.44465 (1,13,5) -0.183935 (1,13,7) -0.170995 (1,14,6) -0.848456
(1,13,7): (1,12,7) 1.29471 (1,13,6) 0.170995 (1,13,8) -0.466211 (1,14,7) -0.760932
(1,13,8): (1,12,8) 0.707269 (1,13,7) 0.466211 (1,13,9) -0.434563 (1,14,8) -0.512187
(1,13,9): (1,12,9) 0.311244 (1,13,8) 0.434563 (1,13,10) -0.238594 (1,14,9) -0.299037
(1,13,10): (1,12,10) 0.146214 (1,13,9) 0.238594 (1,14,10) -0.190745
(1,14,1): (1,13,1) 8.257534E-02 (1,14,2) 9.727346E-02 (1,15,1) -5.382452E-02
(1,14,2): (1,13,2) 0.141861 (1,14,1) -9.727346E-02 (1,14,3) 0.190637 (1,15,2) -8.522546E-02
(1,14,3): (1,13,3) 0.278388 (1,14,2) -0.190637 (1,14,4) 0.254609 (1,15,3) -0.151675
(1,14,4): (1,13,4) 0.503967 (1,14,3) -0.254609 (1,14,5) 0.235271 (1,15,4) -0.249423
(1,14,5): (1,13,5) 0.758104 (1,14,4) -0.235271 (1,14,6) 9.415223E-02 (1,15,5) -0.347409
(1,14,6): (1,13,6) 0.848456 (1,14,5) -9.415223E-02 (1,14,7) -8.403347E-02 (1,15,6) -0.385641
(1,14,7): (1,13,7) 0.760932 (1,14,6) 8.403347E-02 (1,14,8) -0.218167 (1,15,7) -0.349452
(1,14,8): (1,13,8) 0.512187 (1,14,7) 0.218167 (1,14,9) -0.221573 (1,15,8) -0.255218
(1,14,9): (1,13,9) 0.299037 (1,14,8) 0.221573 (1,14,10) -0.130367 (1,15,9) -0.165562
(1,14,10): (1,13,10) 0.190745 (1,14,9) 0.130367 (1,15,10) -0.115902
(1,15,1): (1,14,1) 5.382452E-02 (1,15,2) 6.586878E-02
(1,15,2): (1,14,2) 8.522546E-02 (1,15,1) -6.586878E-02 (1,15,3) 0.124162
(1,15,3): (1,14,3) 0.151675 (1,15,2) -0.124162 (1,15,4) 0.156855
(1,15,4): (1,14,4) 0.249423 (1,15,3) -0.156855 (1,15,5) 0.137393
(1,15,5): (1,14,5) 0.347409 (1,15,4) -0.137393 (1,15,6) 5.602751E-02
(1,15,6): (1,14,6) 0.385641 (1,15,5) -5.602751E-02 (1,15,7) -4.795007E-02
(1,15,7): (1,14,7) 0.349452 (1,15,6) 4.795007E-02 (1,15,8) -0.124053
(1,15,8): (1,14,8) 0.255218 (1,15,7) 0.124053 (1,15,9) -0.131946
(1,15,9): (1,14,9) 0.165562 (1,15,8) 0.131946 (1,15,10) -8.072481E-02
(1,15,10): (1,14,10) 0.115902 (1,15,9) 8.072481E-02

 WEL PACKAGE (WEL-1) FLOW RATES   PERIOD      2   STEP       86
 ----------------------------------------------------------------------------------------
   NUMBER   CELLID                    RATE       NAME                                    
 ----------------------------------------------------------------------------------------
     1      (1,8,6)              -205.13478      WEL                                     
 ----------------------------------------------------------------------------------------




 DRN PACKAGE (DRN-0) FLOW RATES   PERIOD      2   STEP       86
 ----------------------------------------------------------------------------------------
   NUMBER   CELLID                    RATE       NAME                                    
 ----------------------------------------------------------------------------------------
     1      (1,1,1)               0.0000000      SURF                                    
     2      (1,1,2)               0.0000000      SURF                                    
     3      (1,1,3)               0.0000000      SURF                                    
     4      (1,1,4)               0.0000000      SURF                                    
     5      (1,1,5)               0.0000000      SURF                                    
     6      (1,1,6)               0.0000000      SURF                                    
     7      (1,1,7)               0.0000000      SURF                                    
     8      (1,1,8)               0.0000000      SURF                                    
     9      (1,1,9)               0.0000000      SURF                                    
     10     (1,1,10)              0.0000000      SURF                                    
     11     (1,2,1)               0.0000000      SURF                                    
     12     (1,2,2)               0.0000000      SURF                                    
     13     (1,2,3)               0.0000000      SURF                                    
     14     (1,2,4)               0.0000000      SURF                                    
     15     (1,2,5)               0.0000000      SURF                                    
     16     (1,2,6)               0.0000000      SURF                                    
     17     (1,2,7)               0.0000000      SURF                                    
     18     (1,2,8)               0.0000000      SURF                                    
     19     (1,2,9)               0.0000000      SURF                                    
     20     (1,2,10)              0.0000000      SURF                                    
     21     (1,3,1)               0.0000000      SURF                                    
     22     (1,3,2)               0.0000000      SURF                                    
     23     (1,3,3)               0.0000000      SURF                                    
     24     (1,3,4)               0.0000000      SURF                                    
     25     (1,3,5)               0.0000000      SURF                                    
     26     (1,3,6)               0.0000000      SURF                                    
     27     (1,3,7)               0.0000000      SURF                                    
     28     (1,3,8)               0.0000000      SURF                                    
     29     (1,3,9)               0.0000000      SURF                                    
     30     (1,3,10)              0.0000000      SURF                                    
     31     (1,4,1)               0.0000000      SURF                                    
     32     (1,4,2)               0.0000000      SURF                                    
     33     (1,4,3)               0.0000000      SURF                                    
     34     (1,4,4)               0.0000000      SURF                                    
     35     (1,4,5)               0.0000000      SURF                                    
     36     (1,4,6)               0.0000000      SURF                                    
     37     (1,4,7)               0.0000000      SURF                                    
     38     (1,4,8)               0.0000000      SURF                                    
     39     (1,4,9)               0.0000000      SURF                                    
     40     (1,4,10)              0.0000000      SURF                                    
     41     (1,5,1)               0.0000000      SURF                                    
     42     (1,5,2)               0.0000000      SURF                                    
     43     (1,5,3)               0.0000000      SURF                                    
     44     (1,5,4)               0.0000000      SURF                                    
     45     (1,5,5)               0.0000000      SURF                                    
     46     (1,5,6)               0.0000000      SURF                                    
     47     (1,5,7)               0.0000000      SURF                                    
     48     (1,5,8)               0.0000000      SURF                                    
     49     (1,5,9)               0.0000000      SURF                                    
     50     (1,5,10)              0.0000000      SURF                                    
     51     (1,6,1)               0.0000000      SURF                                    
     52     (1,6,2)               0.0000000      SURF                                    
     53     (1,6,3)               0.0000000      SURF                                    
     54     (1,6,4)               0.0000000      SURF                                    
     55     (1,6,5)               0.0000000      SURF                                    
     56     (1,6,6)               0.0000000      SURF                                    
     57     (1,6,7)              -3.10887117E-07 SURF                                    
     58     (1,6,8)               0.0000000      SURF                                    
     59     (1,6,9)               0.0000000      SURF                                    
     60     (1,6,10)              0.0000000      SURF                                    
     61     (1,7,1)               0.0000000      SURF                                    
     62     (1,7,2)               0.0000000      SURF                                    
     63     (1,7,3)               0.0000000      SURF                                    
     64     (1,7,4)               0.0000000      SURF                                    
     65     (1,7,5)               0.0000000      SURF                                    
     66     (1,7,6)               0.0000000      SURF                                    
     67     (1,7,7)               0.0000000      SURF                                    
     68     (1,7,8)               0.0000000      SURF                                    
     69     (1,7,9)               0.0000000      SURF                                    
     70     (1,7,10)              0.0000000      SURF                                    
     71     (1,8,1)               0.0000000      SURF                                    
     72     (1,8,2)               0.0000000      SURF                                    
     73     (1,8,3)               0.0000000      SURF                                    
     74     (1,8,4)               0.0000000      SURF                                    
     75     (1,8,5)               0.0000000      SURF                                    
     76     (1,8,6)               0.0000000      SURF                                    
     77     (1,8,7)               0.0000000      SURF                                    
     78     (1,8,8)               0.0000000      SURF                                    
     79     (1,8,9)               0.0000000      SURF                                    
     80     (1,8,10)              0.0000000      SURF                                    
     81     (1,9,1)               0.0000000      SURF                                    
     82     (1,9,2)               0.0000000      SURF                                    
     83     (1,9,3)               0.0000000      SURF                                    
     84     (1,9,4)               0.0000000      SURF                                    
     85     (1,9,5)               0.0000000      SURF                                    
     86     (1,9,6)               0.0000000      SURF                                    
     87     (1,9,7)               0.0000000      SURF                                    
     88     (1,9,8)               0.0000000      SURF                                    
     89     (1,9,9)               0.0000000      SURF                                    
     90     (1,9,10)              0.0000000      SURF                                    
     91     (1,10,1)              0.0000000      SURF                                    
     92     (1,10,2)              0.0000000      SURF                                    
     93     (1,10,3)              0.0000000      SURF                                    
     94     (1,10,4)              0.0000000      SURF                                    
     95     (1,10,5)              0.0000000      SURF                                    
     96     (1,10,6)              0.0000000      SURF                                    
     97     (1,10,7)              0.0000000      SURF                                    
     98     (1,10,8)              0.0000000      SURF                                    
     99     (1,10,9)              0.0000000      SURF                                    
    100     (1,10,10)             0.0000000      SURF                                    
    101     (1,11,1)              0.0000000      SURF                                    
    102     (1,11,2)              0.0000000      SURF                                    
    103     (1,11,3)              0.0000000      SURF                                    
    104     (1,11,4)              0.0000000      SURF                                    
    105     (1,11,5)              0.0000000      SURF                                    
    106     (1,11,6)              0.0000000      SURF                                    
    107     (1,11,7)              0.0000000      SURF                                    
    108     (1,11,8)              0.0000000      SURF                                    
    109     (1,11,9)              0.0000000      SURF                                    
    110     (1,11,10)             0.0000000      SURF                                    
    111     (1,12,1)              0.0000000      SURF                                    
    112     (1,12,2)              0.0000000      SURF                                    
    113     (1,12,3)              0.0000000      SURF                                    
    114     (1,12,4)              0.0000000      SURF                                    
    115     (1,12,5)              0.0000000      SURF                                    
    116     (1,12,6)              0.0000000      SURF                                    
    117     (1,12,7)              0.0000000      SURF                                    
    118     (1,12,8)              0.0000000      SURF                                    
    119     (1,12,9)              0.0000000      SURF                                    
    120     (1,12,10)             0.0000000      SURF                                    
    121     (1,13,1)              0.0000000      SURF                                    
    122     (1,13,2)              0.0000000      SURF                                    
    123     (1,13,3)              0.0000000      SURF                                    
    124     (1,13,4)              0.0000000      SURF                                    
    125     (1,13,5)              0.0000000      SURF                                    
    126     (1,13,6)              0.0000000      SURF                                    
    127     (1,13,7)              0.0000000      SURF                                    
    128     (1,13,8)              0.0000000      SURF                                    
    129     (1,13,9)              0.0000000      SURF                                    
    130     (1,13,10)             0.0000000      SURF                                    
    131     (1,14,1)              0.0000000      SURF                                    
    132     (1,14,2)              0.0000000      SURF                                    
    133     (1,14,3)              0.0000000      SURF                                    
    134     (1,14,4)              0.0000000      SURF                                    
    135     (1,14,5)              0.0000000      SURF                                    
    136     (1,14,6)              0.0000000      SURF                                    
    137     (1,14,7)              0.0000000      SURF                                    
    138     (1,14,8)              0.0000000      SURF                                    
    139     (1,14,9)              0.0000000      SURF                                    
    140     (1,14,10)             0.0000000      SURF                                    
    141     (1,15,1)              0.0000000      SURF                                    
    142     (1,15,2)              0.0000000      SURF                                    
    143     (1,15,3)              0.0000000      SURF                                    
    144     (1,15,4)              0.0000000      SURF                                    
    145     (1,15,5)              0.0000000      SURF                                    
    146     (1,15,6)              0.0000000      SURF                                    
    147     (1,15,7)              0.0000000      SURF                                    
    148     (1,15,8)              0.0000000      SURF                                    
    149     (1,15,9)              0.0000000      SURF                                    
    150     (1,15,10)             0.0000000      SURF                                    
 ----------------------------------------------------------------------------------------




 API PACKAGE (MAR) FLOW RATES   PERIOD      2   STEP       86
 -----------------------------------------------
   NUMBER   CELLID                    RATE      
 -----------------------------------------------
     1      (1,6,5)               35.837104     
     2      (1,6,6)               35.837104     
     3      (1,6,7)               35.837104     
     4      (1,10,5)              32.541156     
     5      (1,10,6)              32.541156     
     6      (1,10,7)              32.541156     
 -----------------------------------------------



1
  HEAD IN LAYER   1 AT END OF TIME STEP  86 IN STRESS PERIOD    2
  ---------------------------------------------------------------------------

            1           2           3           4           5           6           7           8           9          10
 ........................................................................................................................
   1   1.9814E-02  2.6833E-02  3.9977E-02  5.6464E-02  7.0844E-02  7.6731E-02  7.1811E-02  5.8978E-02  4.5285E-02  3.6883E-02
   2   2.5622E-02  3.5845E-02  5.5758E-02  8.2200E-02  0.1066      0.1164      0.1078      8.5348E-02  6.2554E-02  4.9119E-02
   3   3.4545E-02  5.0837E-02  8.4728E-02  0.1343      0.1848      0.2039      0.1863      0.1383      9.3725E-02  6.9230E-02
   4   3.9967E-02  6.3125E-02  0.1167      0.2085      0.3205      0.3556      0.3221      0.2129      0.1268      8.5024E-02
   5   3.1120E-02  5.5153E-02  0.1231      0.2789      0.5505      0.5950      0.5517      0.2822      0.1307      7.2621E-02
   6  -1.4456E-03  3.1908E-03  4.1300E-02  0.2325      0.9999      0.9264       1.000      0.2325      4.0667E-02  1.6625E-03
   7  -5.0350E-02 -9.6254E-02 -0.2125     -0.4583     -0.9674      -2.165     -0.9685     -0.4623     -0.2246     -0.1286    
   8  -7.6316E-02 -0.1536     -0.3769     -0.9738      -2.726      -9.251      -2.728     -0.9801     -0.3952     -0.2028    
   9  -5.2664E-02 -9.9801E-02 -0.2203     -0.4782      -1.014      -2.222      -1.015     -0.4825     -0.2330     -0.1332    
  10  -5.4658E-03 -2.9804E-03  2.7226E-02  0.1919      0.8792      0.7888      0.8791      0.1914      2.5593E-02 -6.3645E-03
  11   2.6532E-02  4.8886E-02  0.1118      0.2547      0.5018      0.5387      0.5027      0.2573      0.1182      6.4332E-02
  12   3.5617E-02  5.7709E-02  0.1087      0.1954      0.2999      0.3322      0.3013      0.1991      0.1177      7.7748E-02
  13   3.0836E-02  4.6420E-02  7.8887E-02  0.1263      0.1743      0.1924      0.1756      0.1298      8.6893E-02  6.3239E-02
  14   2.2604E-02  3.2300E-02  5.1266E-02  7.6533E-02  9.9828E-02  0.1091      0.1008      7.9230E-02  5.7247E-02  4.4284E-02
  15   1.7233E-02  2.3804E-02  3.6176E-02  5.1781E-02  6.5431E-02  7.0994E-02  6.6233E-02  5.3909E-02  4.0785E-02  3.2745E-02

 HEAD WILL BE SAVED ON UNIT 1100 AT END OF TIME STEP   86, STRESS PERIOD    2


  VOLUME BUDGET FOR ENTIRE MODEL AT END OF TIME STEP   86, STRESS PERIOD   2
  ---------------------------------------------------------------------------------------------------

     CUMULATIVE VOLUME      L**3       RATES FOR THIS TIME STEP      L**3/T          PACKAGE NAME    
     ------------------                 ------------------------                     ----------------

           IN:                                      IN:
           ---                                      ---
              STO-SS =          25.2451                STO-SS =       8.0061E-03     STORAGE                          
              STO-SY =       62100.1944                STO-SY =          16.5924     STORAGE                          
                 WEL =           0.0000                   WEL =           0.0000     WEL-1                            
                 DRN =           0.0000                   DRN =           0.0000     DRN-0                            
                 API =      175974.8797                   API =         205.1348     MAR                              
                 CHD =       2.0279E-08                   CHD =           0.0000     CHD_0                            

            TOTAL IN =      238100.3192              TOTAL IN =         221.7351

          OUT:                                     OUT:
          ----                                     ----
              STO-SS =          21.7686                STO-SS =       8.3949E-03     STORAGE                          
              STO-SY =       42534.8643                STO-SY =          16.5920     STORAGE                          
                 WEL =      195543.6860                   WEL =         205.1348     WEL-1                            
                 DRN =       2.8530E-04                   DRN =       3.1089E-07     DRN-0                            
                 API =           0.0000                   API =           0.0000     MAR                              
                 CHD =       2.0705E-08                   CHD =           0.0000     CHD_0                            

           TOTAL OUT =      238100.3192             TOTAL OUT =         221.7351

            IN - OUT =      -9.6869E-07              IN - OUT =       7.4428E-10

 PERCENT DISCREPANCY =          -0.00     PERCENT DISCREPANCY =           0.00




         TIME SUMMARY AT END OF TIME STEP   86 IN STRESS PERIOD    2
                    SECONDS     MINUTES      HOURS       DAYS        YEARS
                    -----------------------------------------------------------
   TIME STEP LENGTH 8.64000E+05  14400.      240.00      10.000     2.73785E-02
 STRESS PERIOD TIME 7.43040E+07 1.23840E+06  20640.      860.00      2.3546    
         TOTAL TIME 7.43904E+07 1.23984E+06  20664.      861.00      2.3573    


end timestep


start timestep kper="2" kstp="87" mode="normal"

 UBDSV1 SAVING           STO-SS ON UNIT   1099 AT TIME STEP     87, STRESS PERIOD      2
 UBDSV1 SAVING           STO-SY ON UNIT   1099 AT TIME STEP     87, STRESS PERIOD      2
 UBDSV1 SAVING     FLOW-JA-FACE ON UNIT   1099 AT TIME STEP     87, STRESS PERIOD      2
 UBDSV06 SAVING       DATA-SPDIS IN MODEL GWF              PACKAGE NPF             CONNECTED TO MODEL GWF              PACKAGE NPF              ON UNIT   1099 AT TIME STEP     87, STRESS PERIOD      2
 UBDSV06 SAVING              WEL IN MODEL GWF              PACKAGE GWF             CONNECTED TO MODEL GWF              PACKAGE WEL-1            ON UNIT   1099 AT TIME STEP     87, STRESS PERIOD      2
 UBDSV06 SAVING              DRN IN MODEL GWF              PACKAGE GWF             CONNECTED TO MODEL GWF              PACKAGE DRN-0            ON UNIT   1099 AT TIME STEP     87, STRESS PERIOD      2
 UBDSV06 SAVING              API IN MODEL GWF              PACKAGE GWF             CONNECTED TO MODEL GWF              PACKAGE MAR              ON UNIT   1099 AT TIME STEP     87, STRESS PERIOD      2
 UBDSV06 SAVING              CHD IN MODEL GWF              PACKAGE GWF             CONNECTED TO MODEL GWF              PACKAGE CHD_0            ON UNIT   1099 AT TIME STEP     87, STRESS PERIOD      2

    CALCULATED INTERCELL FLOW FOR PERIOD 2 STEP 87
(1,1,1): (1,1,2) 7.154522E-02 (1,2,1) 5.846075E-02
(1,1,2): (1,1,1) -7.154522E-02 (1,1,3) 0.133984 (1,2,2) 9.070168E-02
(1,1,3): (1,1,2) -0.133984 (1,1,4) 0.168106 (1,2,3) 0.159023
(1,1,4): (1,1,3) -0.168106 (1,1,5) 0.146681 (1,2,4) 0.259934
(1,1,5): (1,1,4) -0.146681 (1,1,6) 6.015200E-02 (1,2,5) 0.361723
(1,1,6): (1,1,5) -6.015200E-02 (1,1,7) -4.998385E-02 (1,2,6) 0.401621
(1,1,7): (1,1,6) 4.998385E-02 (1,1,8) -0.130571 (1,2,7) 0.364091
(1,1,8): (1,1,7) 0.130571 (1,1,9) -0.139249 (1,2,8) 0.266449
(1,1,9): (1,1,8) 0.139249 (1,1,10) -8.538093E-02 (1,2,9) 0.174151
(1,1,10): (1,1,9) 8.538093E-02 (1,2,10) 0.123280
(1,2,1): (1,1,1) -5.846075E-02 (1,2,2) 0.103790 (1,3,1) 8.922315E-02
(1,2,2): (1,1,2) -9.070168E-02 (1,2,1) -0.103790 (1,2,3) 0.202335 (1,3,2) 0.150280
(1,2,3): (1,1,3) -0.159023 (1,2,2) -0.202335 (1,2,4) 0.269026 (1,3,3) 0.291700
(1,2,4): (1,1,4) -0.259934 (1,2,3) -0.269026 (1,2,5) 0.248358 (1,3,4) 0.527591
(1,2,5): (1,1,5) -0.361723 (1,2,4) -0.248358 (1,2,6) 9.993273E-02 (1,3,5) 0.796377
(1,2,6): (1,1,6) -0.401621 (1,2,5) -9.993273E-02 (1,2,7) -8.739970E-02 (1,3,6) 0.892762
(1,2,7): (1,1,7) -0.364091 (1,2,6) 8.739970E-02 (1,2,8) -0.228083 (1,3,7) 0.799670
(1,2,8): (1,1,8) -0.266449 (1,2,7) 0.228083 (1,2,9) -0.231516 (1,3,8) 0.536824
(1,2,9): (1,1,9) -0.174151 (1,2,8) 0.231516 (1,2,10) -0.136233 (1,3,9) 0.314080
(1,2,10): (1,1,10) -0.123280 (1,2,9) 0.136233 (1,3,10) 0.201902
(1,3,1): (1,2,1) -8.922315E-02 (1,3,2) 0.164856 (1,4,1) 5.244077E-02
(1,3,2): (1,2,2) -0.150280 (1,3,1) -0.164856 (1,3,3) 0.343828 (1,4,2) 0.121315
(1,3,3): (1,2,3) -0.291700 (1,3,2) -0.343828 (1,3,4) 0.504865 (1,4,3) 0.320636
(1,3,4): (1,2,4) -0.527591 (1,3,3) -0.504865 (1,3,5) 0.516426 (1,4,4) 0.754838
(1,3,5): (1,2,5) -0.796377 (1,3,4) -0.516426 (1,3,6) 0.195682 (1,4,5) 1.39841
(1,3,6): (1,2,6) -0.892762 (1,3,5) -0.195682 (1,3,7) -0.179864 (1,4,6) 1.56905
(1,3,7): (1,2,7) -0.799670 (1,3,6) 0.179864 (1,3,8) -0.490152 (1,4,7) 1.39965
(1,3,8): (1,2,8) -0.536824 (1,3,7) 0.490152 (1,3,9) -0.454082 (1,4,8) 0.758594
(1,3,9): (1,2,9) -0.314080 (1,3,8) 0.454082 (1,3,10) -0.248339 (1,4,9) 0.331855
(1,3,10): (1,2,10) -0.201902 (1,3,9) 0.248339 (1,4,10) 0.155962
(1,4,1): (1,3,1) -5.244077E-02 (1,4,2) 0.233806 (1,5,1) -9.314276E-02
(1,4,2): (1,3,2) -0.121315 (1,4,1) -0.233806 (1,4,3) 0.543581 (1,5,2) -8.526534E-02
(1,4,3): (1,3,3) -0.320636 (1,4,2) -0.543581 (1,4,4) 0.939832 (1,5,3) 5.937813E-02
(1,4,4): (1,3,4) -0.754838 (1,4,3) -0.939832 (1,4,5) 1.15857 (1,5,4) 0.717524
(1,4,5): (1,3,5) -1.39841 (1,4,4) -1.15857 (1,4,6) 0.364455 (1,5,5) 2.42049
(1,4,6): (1,3,6) -1.56905 (1,4,5) -0.364455 (1,4,7) -0.347385 (1,5,6) 2.53112
(1,4,7): (1,3,7) -1.39965 (1,4,6) 0.347385 (1,4,8) -1.12960 (1,5,7) 2.41598
(1,4,8): (1,3,8) -0.758594 (1,4,7) 1.12960 (1,4,9) -0.881320 (1,5,8) 0.705061
(1,4,9): (1,3,9) -0.331855 (1,4,8) 0.881320 (1,4,10) -0.424390 (1,5,9) 3.202360E-02
(1,4,10): (1,3,10) -0.155962 (1,4,9) 0.424390 (1,5,10) -0.132121
(1,5,1): (1,4,1) 9.314276E-02 (1,5,2) 0.241696 (1,6,1) -0.332616
(1,5,2): (1,4,2) 8.526534E-02 (1,5,1) -0.241696 (1,5,3) 0.689045 (1,6,2) -0.529429
(1,5,3): (1,4,3) -5.937813E-02 (1,5,2) -0.689045 (1,5,4) 1.60349 (1,6,3) -0.836728
(1,5,4): (1,4,4) -0.717524 (1,5,3) -1.60349 (1,5,5) 2.86831 (1,6,4) -0.485865
(1,5,5): (1,4,5) -2.42049 (1,5,4) -2.86831 (1,5,6) 0.473246 (1,6,5) 4.93682
(1,5,6): (1,4,6) -2.53112 (1,5,5) -0.473246 (1,5,7) -0.460584 (1,6,6) 3.61601
(1,5,7): (1,4,7) -2.41598 (1,5,6) 0.460584 (1,5,8) -2.84708 (1,6,7) 4.92501
(1,5,8): (1,4,8) -0.705061 (1,5,7) 2.84708 (1,5,9) -1.55979 (1,6,8) -0.519552
(1,5,9): (1,4,9) -3.202360E-02 (1,5,8) 1.55979 (1,5,10) -0.589257 (1,6,9) -0.921820
(1,5,10): (1,4,10) 0.132121 (1,5,9) 0.589257 (1,6,10) -0.724371
(1,6,1): (1,5,1) 0.332616 (1,6,2) 4.544078E-02 (1,7,1) -0.494372
(1,6,2): (1,5,2) 0.529429 (1,6,1) -4.544078E-02 (1,6,3) 0.382184 (1,7,2) -1.00119
(1,6,3): (1,5,3) 0.836728 (1,6,2) -0.382184 (1,6,4) 1.95820 (1,7,3) -2.55680
(1,6,4): (1,5,4) 0.485865 (1,6,3) -1.95820 (1,6,5) 8.44707 (1,7,4) -7.07761
(1,6,5): (1,5,5) -4.93682 (1,6,4) -8.44707 (1,6,6) -0.805287 (1,7,5) -21.6514
(1,6,6): (1,5,6) -3.61601 (1,6,5) 0.805287 (1,6,7) 0.806575 (1,7,6) -33.7890
(1,6,7): (1,5,7) -4.92501 (1,6,6) -0.806575 (1,6,8) -8.44869 (1,7,7) -21.6654
(1,6,8): (1,5,8) 0.519552 (1,6,7) 8.44869 (1,6,9) -1.96616 (1,7,8) -7.11999
(1,6,9): (1,5,9) 0.921820 (1,6,8) 1.96616 (1,6,10) -0.392434 (1,7,9) -2.67334
(1,6,10): (1,5,10) 0.724371 (1,6,9) 0.392434 (1,7,10) -1.31125
(1,7,1): (1,6,1) 0.494372 (1,7,2) -0.458660 (1,8,1) -0.260656
(1,7,2): (1,6,2) 1.00119 (1,7,1) 0.458660 (1,7,3) -1.15352 (1,8,2) -0.571132
(1,7,3): (1,6,3) 2.55680 (1,7,2) 1.15352 (1,7,4) -2.40430 (1,8,3) -1.61287
(1,7,4): (1,6,4) 7.07761 (1,7,3) 2.40430 (1,7,5) -4.85304 (1,8,4) -4.92417
(1,7,5): (1,6,5) 21.6514 (1,7,4) 4.85304 (1,7,6) -10.8128 (1,8,5) -15.8925
(1,7,6): (1,6,6) 33.7890 (1,7,5) 10.8128 (1,7,7) 10.8012 (1,8,6) -55.5095
(1,7,7): (1,6,7) 21.6654 (1,7,6) -10.8012 (1,7,8) 4.82198 (1,8,7) -15.8982
(1,7,8): (1,6,8) 7.11999 (1,7,7) -4.82198 (1,7,9) 2.32048 (1,8,8) -4.94442
(1,7,9): (1,6,9) 2.67334 (1,7,8) -2.32048 (1,7,10) 0.948174 (1,8,9) -1.67168
(1,7,10): (1,6,10) 1.31125 (1,7,9) -0.948174 (1,8,10) -0.737097
(1,8,1): (1,7,1) 0.260656 (1,8,2) -0.769763 (1,9,1) 0.237237
(1,8,2): (1,7,2) 0.571132 (1,8,1) 0.769763 (1,8,3) -2.20156 (1,9,2) 0.534738
(1,8,3): (1,7,3) 1.61287 (1,8,2) 2.20156 (1,8,4) -5.74401 (1,9,3) 1.53234
(1,8,4): (1,7,4) 4.92417 (1,8,3) 5.74401 (1,8,5) -15.8121 (1,9,4) 4.71600
(1,8,5): (1,7,5) 15.8925 (1,8,4) 15.8121 (1,8,6) -47.4343 (1,9,5) 15.3740
(1,8,6): (1,7,6) 55.5095 (1,8,5) 47.4343 (1,8,7) 47.4070 (1,9,6) 54.6410
(1,8,7): (1,7,7) 15.8982 (1,8,6) -47.4070 (1,8,8) 15.7598 (1,9,7) 15.3782
(1,8,8): (1,7,8) 4.94442 (1,8,7) -15.7598 (1,8,9) 5.61628 (1,9,8) 4.73301
(1,8,9): (1,7,9) 1.67168 (1,8,8) -5.61628 (1,8,10) 1.88482 (1,9,9) 1.58526
(1,8,10): (1,7,10) 0.737097 (1,8,9) -1.88482 (1,9,10) 0.689736
(1,9,1): (1,8,1) -0.237237 (1,9,2) -0.471552 (1,10,1) 0.476913
(1,9,2): (1,8,2) -0.534738 (1,9,1) 0.471552 (1,9,3) -1.19709 (1,10,2) 0.973696
(1,9,3): (1,8,3) -1.53234 (1,9,2) 1.19709 (1,9,4) -2.52593 (1,10,3) 2.48784
(1,9,4): (1,8,4) -4.71600 (1,9,3) 2.52593 (1,9,5) -5.10442 (1,10,4) 6.83227
(1,9,5): (1,8,5) -15.3740 (1,9,4) 5.10442 (1,9,6) -10.8464 (1,10,5) 20.5868
(1,9,6): (1,8,6) -54.6410 (1,9,5) 10.8464 (1,9,7) 10.8334 (1,10,6) 32.4602
(1,9,7): (1,8,7) -15.3782 (1,9,6) -10.8334 (1,9,8) 5.07143 (1,10,7) 20.5995
(1,9,8): (1,8,8) -4.73301 (1,9,7) -5.07143 (1,9,9) 2.43923 (1,10,8) 6.87213
(1,9,9): (1,8,9) -1.58526 (1,9,8) -2.43923 (1,9,10) 0.986516 (1,10,9) 2.59985
(1,9,10): (1,8,10) -0.689736 (1,9,9) -0.986516 (1,10,10) 1.27550
(1,10,1): (1,9,1) -0.476913 (1,10,2) 2.275309E-02 (1,11,1) 0.326838
(1,10,2): (1,9,2) -0.973696 (1,10,1) -2.275309E-02 (1,10,3) 0.298770 (1,11,2) 0.528495
(1,10,3): (1,9,3) -2.48784 (1,10,2) -0.298770 (1,10,4) 1.67133 (1,11,3) 0.864603
(1,10,4): (1,9,4) -6.83227 (1,10,3) -1.67133 (1,10,5) 7.46264 (1,11,4) 0.656883
(1,10,5): (1,9,5) -20.5868 (1,10,4) -7.46264 (1,10,6) -0.985688 (1,11,5) -4.08392
(1,10,6): (1,9,6) -32.4602 (1,10,5) 0.985688 (1,10,7) 0.984606 (1,11,6) -2.67579
(1,10,7): (1,9,7) -20.5995 (1,10,6) -0.984606 (1,10,8) -7.46744 (1,11,7) -4.07275
(1,10,8): (1,9,8) -6.87213 (1,10,7) 7.46744 (1,10,9) -1.68411 (1,11,8) 0.689362
(1,10,9): (1,9,9) -2.59985 (1,10,8) 1.68411 (1,10,10) -0.317854 (1,11,9) 0.947799
(1,10,10): (1,9,10) -1.27550 (1,10,9) 0.317854 (1,11,10) 0.721588
(1,11,1): (1,10,1) -0.326838 (1,11,2) 0.223803 (1,12,1) 9.560936E-02
(1,11,2): (1,10,2) -0.528495 (1,11,1) -0.223803 (1,11,3) 0.634128 (1,12,2) 9.434816E-02
(1,11,3): (1,10,3) -0.864603 (1,11,2) -0.634128 (1,11,4) 1.46193 (1,12,3) -2.366689E-02
(1,11,4): (1,10,4) -0.656883 (1,11,3) -1.46193 (1,11,5) 2.58940 (1,12,4) -0.597118
(1,11,5): (1,10,5) 4.08392 (1,11,4) -2.58940 (1,11,6) 0.387497 (1,12,5) -2.10356
(1,11,6): (1,10,6) 2.67579 (1,11,5) -0.387497 (1,11,7) -0.377747 (1,12,6) -2.15870
(1,11,7): (1,10,7) 4.07275 (1,11,6) 0.377747 (1,11,8) -2.57199 (1,12,7) -2.09903
(1,11,8): (1,10,8) -0.689362 (1,11,7) 2.57199 (1,11,9) -1.42378 (1,12,8) -0.584604
(1,11,9): (1,10,9) -0.947799 (1,11,8) 1.42378 (1,11,10) -0.543186 (1,12,9) 3.994692E-03
(1,11,10): (1,10,10) -0.721588 (1,11,9) 0.543186 (1,12,10) 0.142951
(1,12,1): (1,11,1) -9.560936E-02 (1,12,2) 0.222540 (1,13,1) -4.596958E-02
(1,12,2): (1,11,2) -9.434816E-02 (1,12,1) -0.222540 (1,12,3) 0.515493 (1,13,2) -0.110878
(1,12,3): (1,11,3) 2.366689E-02 (1,12,2) -0.515493 (1,12,4) 0.883763 (1,13,3) -0.297119
(1,12,4): (1,11,4) 0.597118 (1,12,3) -0.883763 (1,12,5) 1.07638 (1,13,4) -0.698395
(1,12,5): (1,11,5) 2.10356 (1,12,4) -1.07638 (1,12,6) 0.333110 (1,13,5) -1.28607
(1,12,6): (1,11,6) 2.15870 (1,12,5) -0.333110 (1,12,7) -0.318916 (1,13,6) -1.43623
(1,12,7): (1,11,7) 2.09903 (1,12,6) 0.318916 (1,12,8) -1.05113 (1,13,7) -1.28691
(1,12,8): (1,11,8) 0.584604 (1,12,7) 1.05113 (1,12,9) -0.830483 (1,13,8) -0.701294
(1,12,9): (1,11,9) -3.994692E-03 (1,12,8) 0.830483 (1,12,10) -0.403686 (1,13,9) -0.306771
(1,12,10): (1,11,10) -0.142951 (1,12,9) 0.403686 (1,13,10) -0.142521
(1,13,1): (1,12,1) 4.596958E-02 (1,13,2) 0.157560 (1,14,1) -8.230773E-02
(1,13,2): (1,12,2) 0.110878 (1,13,1) -0.157560 (1,13,3) 0.328855 (1,14,2) -0.141403
(1,13,3): (1,12,3) 0.297119 (1,13,2) -0.328855 (1,13,4) 0.481776 (1,14,3) -0.277541
(1,13,4): (1,12,4) 0.698395 (1,13,3) -0.481776 (1,13,5) 0.489858 (1,14,4) -0.502542
(1,13,5): (1,12,5) 1.28607 (1,13,4) -0.489858 (1,13,6) 0.184459 (1,14,5) -0.756059
(1,13,6): (1,12,6) 1.43623 (1,13,5) -0.184459 (1,13,7) -0.171122 (1,14,6) -0.846176
(1,13,7): (1,12,7) 1.28691 (1,13,6) 0.171122 (1,13,8) -0.466797 (1,14,7) -0.758884
(1,13,8): (1,12,8) 0.701294 (1,13,7) 0.466797 (1,13,9) -0.435472 (1,14,8) -0.510738
(1,13,9): (1,12,9) 0.306771 (1,13,8) 0.435472 (1,13,10) -0.239281 (1,14,9) -0.298108
(1,13,10): (1,12,10) 0.142521 (1,13,9) 0.239281 (1,14,10) -0.190088
(1,14,1): (1,13,1) 8.230773E-02 (1,14,2) 9.845559E-02 (1,15,1) -5.410370E-02
(1,14,2): (1,13,2) 0.141403 (1,14,1) -9.845559E-02 (1,14,3) 0.192649 (1,15,2) -8.550487E-02
(1,14,3): (1,13,3) 0.277541 (1,14,2) -0.192649 (1,14,4) 0.256819 (1,15,3) -0.151936
(1,14,4): (1,13,4) 0.502542 (1,14,3) -0.256819 (1,14,5) 0.236987 (1,15,4) -0.249623
(1,14,5): (1,13,5) 0.756059 (1,14,4) -0.236987 (1,14,6) 9.490775E-02 (1,15,5) -0.347521
(1,14,6): (1,13,6) 0.846176 (1,14,5) -9.490775E-02 (1,14,7) -8.438929E-02 (1,15,6) -0.385725
(1,14,7): (1,13,7) 0.758884 (1,14,6) 8.438929E-02 (1,14,8) -0.219344 (1,15,7) -0.349587
(1,14,8): (1,13,8) 0.510738 (1,14,7) 0.219344 (1,14,9) -0.222998 (1,15,8) -0.255465
(1,14,9): (1,13,9) 0.298108 (1,14,8) 0.222998 (1,14,10) -0.131324 (1,15,9) -0.165894
(1,14,10): (1,13,10) 0.190088 (1,14,9) 0.131324 (1,15,10) -0.116273
(1,15,1): (1,14,1) 5.410370E-02 (1,15,2) 6.705038E-02
(1,15,2): (1,14,2) 8.550487E-02 (1,15,1) -6.705038E-02 (1,15,3) 0.126191
(1,15,3): (1,14,3) 0.151936 (1,15,2) -0.126191 (1,15,4) 0.159125
(1,15,4): (1,14,4) 0.249623 (1,15,3) -0.159125 (1,15,5) 0.139194
(1,15,5): (1,14,5) 0.347521 (1,15,4) -0.139194 (1,15,6) 5.681141E-02
(1,15,6): (1,14,6) 0.385725 (1,15,5) -5.681141E-02 (1,15,7) -4.835707E-02
(1,15,7): (1,14,7) 0.349587 (1,15,6) 4.835707E-02 (1,15,8) -0.125341
(1,15,8): (1,14,8) 0.255465 (1,15,7) 0.125341 (1,15,9) -0.133456
(1,15,9): (1,14,9) 0.165894 (1,15,8) 0.133456 (1,15,10) -8.171912E-02
(1,15,10): (1,14,10) 0.116273 (1,15,9) 8.171912E-02

 WEL PACKAGE (WEL-1) FLOW RATES   PERIOD      2   STEP       87
 ----------------------------------------------------------------------------------------
   NUMBER   CELLID                    RATE       NAME                                    
 ----------------------------------------------------------------------------------------
     1      (1,8,6)              -205.04680      WEL                                     
 ----------------------------------------------------------------------------------------




 DRN PACKAGE (DRN-0) FLOW RATES   PERIOD      2   STEP       87
 ----------------------------------------------------------------------------------------
   NUMBER   CELLID                    RATE       NAME                                    
 ----------------------------------------------------------------------------------------
     1      (1,1,1)               0.0000000      SURF                                    
     2      (1,1,2)               0.0000000      SURF                                    
     3      (1,1,3)               0.0000000      SURF                                    
     4      (1,1,4)               0.0000000      SURF                                    
     5      (1,1,5)               0.0000000      SURF                                    
     6      (1,1,6)               0.0000000      SURF                                    
     7      (1,1,7)               0.0000000      SURF                                    
     8      (1,1,8)               0.0000000      SURF                                    
     9      (1,1,9)               0.0000000      SURF                                    
     10     (1,1,10)              0.0000000      SURF                                    
     11     (1,2,1)               0.0000000      SURF                                    
     12     (1,2,2)               0.0000000      SURF                                    
     13     (1,2,3)               0.0000000      SURF                                    
     14     (1,2,4)               0.0000000      SURF                                    
     15     (1,2,5)               0.0000000      SURF                                    
     16     (1,2,6)               0.0000000      SURF                                    
     17     (1,2,7)               0.0000000      SURF                                    
     18     (1,2,8)               0.0000000      SURF                                    
     19     (1,2,9)               0.0000000      SURF                                    
     20     (1,2,10)              0.0000000      SURF                                    
     21     (1,3,1)               0.0000000      SURF                                    
     22     (1,3,2)               0.0000000      SURF                                    
     23     (1,3,3)               0.0000000      SURF                                    
     24     (1,3,4)               0.0000000      SURF                                    
     25     (1,3,5)               0.0000000      SURF                                    
     26     (1,3,6)               0.0000000      SURF                                    
     27     (1,3,7)               0.0000000      SURF                                    
     28     (1,3,8)               0.0000000      SURF                                    
     29     (1,3,9)               0.0000000      SURF                                    
     30     (1,3,10)              0.0000000      SURF                                    
     31     (1,4,1)               0.0000000      SURF                                    
     32     (1,4,2)               0.0000000      SURF                                    
     33     (1,4,3)               0.0000000      SURF                                    
     34     (1,4,4)               0.0000000      SURF                                    
     35     (1,4,5)               0.0000000      SURF                                    
     36     (1,4,6)               0.0000000      SURF                                    
     37     (1,4,7)               0.0000000      SURF                                    
     38     (1,4,8)               0.0000000      SURF                                    
     39     (1,4,9)               0.0000000      SURF                                    
     40     (1,4,10)              0.0000000      SURF                                    
     41     (1,5,1)               0.0000000      SURF                                    
     42     (1,5,2)               0.0000000      SURF                                    
     43     (1,5,3)               0.0000000      SURF                                    
     44     (1,5,4)               0.0000000      SURF                                    
     45     (1,5,5)               0.0000000      SURF                                    
     46     (1,5,6)               0.0000000      SURF                                    
     47     (1,5,7)               0.0000000      SURF                                    
     48     (1,5,8)               0.0000000      SURF                                    
     49     (1,5,9)               0.0000000      SURF                                    
     50     (1,5,10)              0.0000000      SURF                                    
     51     (1,6,1)               0.0000000      SURF                                    
     52     (1,6,2)               0.0000000      SURF                                    
     53     (1,6,3)               0.0000000      SURF                                    
     54     (1,6,4)               0.0000000      SURF                                    
     55     (1,6,5)               0.0000000      SURF                                    
     56     (1,6,6)               0.0000000      SURF                                    
     57     (1,6,7)              -3.10392352E-07 SURF                                    
     58     (1,6,8)               0.0000000      SURF                                    
     59     (1,6,9)               0.0000000      SURF                                    
     60     (1,6,10)              0.0000000      SURF                                    
     61     (1,7,1)               0.0000000      SURF                                    
     62     (1,7,2)               0.0000000      SURF                                    
     63     (1,7,3)               0.0000000      SURF                                    
     64     (1,7,4)               0.0000000      SURF                                    
     65     (1,7,5)               0.0000000      SURF                                    
     66     (1,7,6)               0.0000000      SURF                                    
     67     (1,7,7)               0.0000000      SURF                                    
     68     (1,7,8)               0.0000000      SURF                                    
     69     (1,7,9)               0.0000000      SURF                                    
     70     (1,7,10)              0.0000000      SURF                                    
     71     (1,8,1)               0.0000000      SURF                                    
     72     (1,8,2)               0.0000000      SURF                                    
     73     (1,8,3)               0.0000000      SURF                                    
     74     (1,8,4)               0.0000000      SURF                                    
     75     (1,8,5)               0.0000000      SURF                                    
     76     (1,8,6)               0.0000000      SURF                                    
     77     (1,8,7)               0.0000000      SURF                                    
     78     (1,8,8)               0.0000000      SURF                                    
     79     (1,8,9)               0.0000000      SURF                                    
     80     (1,8,10)              0.0000000      SURF                                    
     81     (1,9,1)               0.0000000      SURF                                    
     82     (1,9,2)               0.0000000      SURF                                    
     83     (1,9,3)               0.0000000      SURF                                    
     84     (1,9,4)               0.0000000      SURF                                    
     85     (1,9,5)               0.0000000      SURF                                    
     86     (1,9,6)               0.0000000      SURF                                    
     87     (1,9,7)               0.0000000      SURF                                    
     88     (1,9,8)               0.0000000      SURF                                    
     89     (1,9,9)               0.0000000      SURF                                    
     90     (1,9,10)              0.0000000      SURF                                    
     91     (1,10,1)              0.0000000      SURF                                    
     92     (1,10,2)              0.0000000      SURF                                    
     93     (1,10,3)              0.0000000      SURF                                    
     94     (1,10,4)              0.0000000      SURF                                    
     95     (1,10,5)              0.0000000      SURF                                    
     96     (1,10,6)              0.0000000      SURF                                    
     97     (1,10,7)              0.0000000      SURF                                    
     98     (1,10,8)              0.0000000      SURF                                    
     99     (1,10,9)              0.0000000      SURF                                    
    100     (1,10,10)             0.0000000      SURF                                    
    101     (1,11,1)              0.0000000      SURF                                    
    102     (1,11,2)              0.0000000      SURF                                    
    103     (1,11,3)              0.0000000      SURF                                    
    104     (1,11,4)              0.0000000      SURF                                    
    105     (1,11,5)              0.0000000      SURF                                    
    106     (1,11,6)              0.0000000      SURF                                    
    107     (1,11,7)              0.0000000      SURF                                    
    108     (1,11,8)              0.0000000      SURF                                    
    109     (1,11,9)              0.0000000      SURF                                    
    110     (1,11,10)             0.0000000      SURF                                    
    111     (1,12,1)              0.0000000      SURF                                    
    112     (1,12,2)              0.0000000      SURF                                    
    113     (1,12,3)              0.0000000      SURF                                    
    114     (1,12,4)              0.0000000      SURF                                    
    115     (1,12,5)              0.0000000      SURF                                    
    116     (1,12,6)              0.0000000      SURF                                    
    117     (1,12,7)              0.0000000      SURF                                    
    118     (1,12,8)              0.0000000      SURF                                    
    119     (1,12,9)              0.0000000      SURF                                    
    120     (1,12,10)             0.0000000      SURF                                    
    121     (1,13,1)              0.0000000      SURF                                    
    122     (1,13,2)              0.0000000      SURF                                    
    123     (1,13,3)              0.0000000      SURF                                    
    124     (1,13,4)              0.0000000      SURF                                    
    125     (1,13,5)              0.0000000      SURF                                    
    126     (1,13,6)              0.0000000      SURF                                    
    127     (1,13,7)              0.0000000      SURF                                    
    128     (1,13,8)              0.0000000      SURF                                    
    129     (1,13,9)              0.0000000      SURF                                    
    130     (1,13,10)             0.0000000      SURF                                    
    131     (1,14,1)              0.0000000      SURF                                    
    132     (1,14,2)              0.0000000      SURF                                    
    133     (1,14,3)              0.0000000      SURF                                    
    134     (1,14,4)              0.0000000      SURF                                    
    135     (1,14,5)              0.0000000      SURF                                    
    136     (1,14,6)              0.0000000      SURF                                    
    137     (1,14,7)              0.0000000      SURF                                    
    138     (1,14,8)              0.0000000      SURF                                    
    139     (1,14,9)              0.0000000      SURF                                    
    140     (1,14,10)             0.0000000      SURF                                    
    141     (1,15,1)              0.0000000      SURF                                    
    142     (1,15,2)              0.0000000      SURF                                    
    143     (1,15,3)              0.0000000      SURF                                    
    144     (1,15,4)              0.0000000      SURF                                    
    145     (1,15,5)              0.0000000      SURF                                    
    146     (1,15,6)              0.0000000      SURF                                    
    147     (1,15,7)              0.0000000      SURF                                    
    148     (1,15,8)              0.0000000      SURF                                    
    149     (1,15,9)              0.0000000      SURF                                    
    150     (1,15,10)             0.0000000      SURF                                    
 ----------------------------------------------------------------------------------------




 API PACKAGE (MAR) FLOW RATES   PERIOD      2   STEP       87
 -----------------------------------------------
   NUMBER   CELLID                    RATE      
 -----------------------------------------------
     1      (1,6,5)               35.845623     
     2      (1,6,6)               35.845623     
     3      (1,6,7)               35.845623     
     4      (1,10,5)              32.503312     
     5      (1,10,6)              32.503312     
     6      (1,10,7)              32.503312     
 -----------------------------------------------



1
  HEAD IN LAYER   1 AT END OF TIME STEP  87 IN STRESS PERIOD    2
  ---------------------------------------------------------------------------

            1           2           3           4           5           6           7           8           9          10
 ........................................................................................................................
   1   2.0464E-02  2.7598E-02  4.0942E-02  5.7656E-02  7.2219E-02  7.8188E-02  7.3228E-02  6.0266E-02  4.6425E-02  3.7926E-02
   2   2.6294E-02  3.6635E-02  5.6755E-02  8.3435E-02  0.1080      0.1179      0.1092      8.6682E-02  6.3729E-02  5.0192E-02
   3   3.5185E-02  5.1586E-02  8.5677E-02  0.1355      0.1862      0.2054      0.1877      0.1396      9.4842E-02  7.0242E-02
   4   4.0408E-02  6.3641E-02  0.1174      0.2094      0.3217      0.3569      0.3233      0.2139      0.1276      8.5705E-02
   5   3.1132E-02  5.5168E-02  0.1232      0.2792      0.5511      0.5957      0.5523      0.2825      0.1308      7.2606E-02
   6  -2.0269E-03  2.5161E-03  4.0580E-02  0.2320      0.9999      0.9267       1.000      0.2319      3.9779E-02  6.9076E-04
   7  -5.1474E-02 -9.7577E-02 -0.2141     -0.4598     -0.9684      -2.166     -0.9696     -0.4639     -0.2265     -0.1304    
   8  -7.7675E-02 -0.1553     -0.3789     -0.9759      -2.728      -9.251      -2.730     -0.9824     -0.3975     -0.2051    
   9  -5.3822E-02 -0.1012     -0.2222     -0.4805      -1.017      -2.224      -1.018     -0.4850     -0.2352     -0.1352    
  10  -6.1021E-03 -3.8259E-03  2.5974E-02  0.1900      0.8761      0.7855      0.8760      0.1894      2.4165E-02 -7.5442E-03
  11   2.6495E-02  4.8767E-02  0.1115      0.2541      0.5006      0.5374      0.5016      0.2567      0.1178      6.4155E-02
  12   3.6022E-02  5.8147E-02  0.1091      0.1958      0.3003      0.3326      0.3017      0.1997      0.1182      7.8339E-02
  13   3.1441E-02  4.7124E-02  7.9749E-02  0.1273      0.1755      0.1936      0.1768      0.1309      8.7917E-02  6.4197E-02
  14   2.3237E-02  3.3050E-02  5.2214E-02  7.7698E-02  0.1012      0.1105      0.1022      8.0488E-02  5.8366E-02  4.5310E-02
  15   1.7839E-02  2.4527E-02  3.7100E-02  5.2928E-02  6.6756E-02  7.2396E-02  6.7595E-02  5.5145E-02  4.1873E-02  3.3735E-02

 HEAD WILL BE SAVED ON UNIT 1100 AT END OF TIME STEP   87, STRESS PERIOD    2


  VOLUME BUDGET FOR ENTIRE MODEL AT END OF TIME STEP   87, STRESS PERIOD   2
  ---------------------------------------------------------------------------------------------------

     CUMULATIVE VOLUME      L**3       RATES FOR THIS TIME STEP      L**3/T          PACKAGE NAME    
     ------------------                 ------------------------                     ----------------

           IN:                                      IN:
           ---                                      ---
              STO-SS =          25.3243                STO-SS =       7.9205E-03     STORAGE                          
              STO-SY =       62264.2925                STO-SY =          16.4098     STORAGE                          
                 WEL =           0.0000                   WEL =           0.0000     WEL-1                            
                 DRN =           0.0000                   DRN =           0.0000     DRN-0                            
                 API =      178025.3478                   API =         205.0468     MAR                              
                 CHD =       2.0279E-08                   CHD =           0.0000     CHD_0                            

            TOTAL IN =      240314.9646              TOTAL IN =         221.4645

          OUT:                                     OUT:
          ----                                     ----
              STO-SS =          21.8516                STO-SS =       8.3027E-03     STORAGE                          
              STO-SY =       42698.9586                STO-SY =          16.4094     STORAGE                          
                 WEL =      197594.1540                   WEL =         205.0468     WEL-1                            
                 DRN =       2.8840E-04                   DRN =       3.1039E-07     DRN-0                            
                 API =           0.0000                   API =           0.0000     MAR                              
                 CHD =       2.0705E-08                   CHD =           0.0000     CHD_0                            

           TOTAL OUT =      240314.9646             TOTAL OUT =         221.4645

            IN - OUT =      -9.6101E-07              IN - OUT =       7.7139E-10

 PERCENT DISCREPANCY =          -0.00     PERCENT DISCREPANCY =           0.00




         TIME SUMMARY AT END OF TIME STEP   87 IN STRESS PERIOD    2
                    SECONDS     MINUTES      HOURS       DAYS        YEARS
                    -----------------------------------------------------------
   TIME STEP LENGTH 8.64000E+05  14400.      240.00      10.000     2.73785E-02
 STRESS PERIOD TIME 7.51680E+07 1.25280E+06  20880.      870.00      2.3819    
         TOTAL TIME 7.52544E+07 1.25424E+06  20904.      871.00      2.3847    


end timestep


start timestep kper="2" kstp="88" mode="normal"

 UBDSV1 SAVING           STO-SS ON UNIT   1099 AT TIME STEP     88, STRESS PERIOD      2
 UBDSV1 SAVING           STO-SY ON UNIT   1099 AT TIME STEP     88, STRESS PERIOD      2
 UBDSV1 SAVING     FLOW-JA-FACE ON UNIT   1099 AT TIME STEP     88, STRESS PERIOD      2
 UBDSV06 SAVING       DATA-SPDIS IN MODEL GWF              PACKAGE NPF             CONNECTED TO MODEL GWF              PACKAGE NPF              ON UNIT   1099 AT TIME STEP     88, STRESS PERIOD      2
 UBDSV06 SAVING              WEL IN MODEL GWF              PACKAGE GWF             CONNECTED TO MODEL GWF              PACKAGE WEL-1            ON UNIT   1099 AT TIME STEP     88, STRESS PERIOD      2
 UBDSV06 SAVING              DRN IN MODEL GWF              PACKAGE GWF             CONNECTED TO MODEL GWF              PACKAGE DRN-0            ON UNIT   1099 AT TIME STEP     88, STRESS PERIOD      2
 UBDSV06 SAVING              API IN MODEL GWF              PACKAGE GWF             CONNECTED TO MODEL GWF              PACKAGE MAR              ON UNIT   1099 AT TIME STEP     88, STRESS PERIOD      2
 UBDSV06 SAVING              CHD IN MODEL GWF              PACKAGE GWF             CONNECTED TO MODEL GWF              PACKAGE CHD_0            ON UNIT   1099 AT TIME STEP     88, STRESS PERIOD      2

    CALCULATED INTERCELL FLOW FOR PERIOD 2 STEP 88
(1,1,1): (1,1,2) 7.269583E-02 (1,2,1) 5.865513E-02
(1,1,2): (1,1,1) -7.269583E-02 (1,1,3) 0.135980 (1,2,2) 9.091639E-02
(1,1,3): (1,1,2) -0.135980 (1,1,4) 0.170377 (1,2,3) 0.159301
(1,1,4): (1,1,3) -0.170377 (1,1,5) 0.148525 (1,2,4) 0.260332
(1,1,5): (1,1,4) -0.148525 (1,1,6) 6.097487E-02 (1,2,5) 0.362262
(1,1,6): (1,1,5) -6.097487E-02 (1,1,7) -5.037923E-02 (1,2,6) 0.402230
(1,1,7): (1,1,6) 5.037923E-02 (1,1,8) -0.131856 (1,2,7) 0.364647
(1,1,8): (1,1,7) 0.131856 (1,1,9) -0.140732 (1,2,8) 0.266880
(1,1,9): (1,1,8) 0.140732 (1,1,10) -8.634325E-02 (1,2,9) 0.174471
(1,1,10): (1,1,9) 8.634325E-02 (1,2,10) 0.123546
(1,2,1): (1,1,1) -5.865513E-02 (1,2,2) 0.104962 (1,3,1) 8.884499E-02
(1,2,2): (1,1,2) -9.091639E-02 (1,2,1) -0.104962 (1,2,3) 0.204394 (1,3,2) 0.149821
(1,2,3): (1,1,3) -0.159301 (1,2,2) -0.204394 (1,2,4) 0.271420 (1,3,3) 0.291187
(1,2,4): (1,1,4) -0.260332 (1,2,3) -0.271420 (1,2,5) 0.250344 (1,3,4) 0.527162
(1,2,5): (1,1,5) -0.362262 (1,2,4) -0.250344 (1,2,6) 0.100826 (1,3,5) 0.796147
(1,2,6): (1,1,6) -0.402230 (1,2,5) -0.100826 (1,2,7) -8.784794E-02 (1,3,6) 0.892641
(1,2,7): (1,1,7) -0.364647 (1,2,6) 8.784794E-02 (1,2,8) -0.229495 (1,3,7) 0.799424
(1,2,8): (1,1,8) -0.266880 (1,2,7) 0.229495 (1,2,9) -0.233110 (1,3,8) 0.536344
(1,2,9): (1,1,9) -0.174471 (1,2,8) 0.233110 (1,2,10) -0.137250 (1,3,9) 0.313441
(1,2,10): (1,1,10) -0.123546 (1,2,9) 0.137250 (1,3,10) 0.201211
(1,3,1): (1,2,1) -8.884499E-02 (1,3,2) 0.165948 (1,4,1) 5.039592E-02
(1,3,2): (1,2,2) -0.149821 (1,3,1) -0.165948 (1,3,3) 0.345835 (1,4,2) 0.118929
(1,3,3): (1,2,3) -0.291187 (1,3,2) -0.345835 (1,3,4) 0.507350 (1,4,3) 0.317854
(1,3,4): (1,2,4) -0.527162 (1,3,3) -0.507350 (1,3,5) 0.518616 (1,4,4) 0.751957
(1,3,5): (1,2,5) -0.796147 (1,3,4) -0.518616 (1,3,6) 0.196686 (1,4,5) 1.39579
(1,3,6): (1,2,6) -0.892641 (1,3,5) -0.196686 (1,3,7) -0.180436 (1,4,6) 1.56658
(1,3,7): (1,2,7) -0.799424 (1,3,6) 0.180436 (1,3,8) -0.491803 (1,4,7) 1.39691
(1,3,8): (1,2,8) -0.536344 (1,3,7) 0.491803 (1,3,9) -0.455840 (1,4,8) 0.755417
(1,3,9): (1,2,9) -0.313441 (1,3,8) 0.455840 (1,3,10) -0.249409 (1,4,9) 0.328482
(1,3,10): (1,2,10) -0.201211 (1,3,9) 0.249409 (1,4,10) 0.152594
(1,4,1): (1,3,1) -5.039592E-02 (1,4,2) 0.234559 (1,5,1) -9.746104E-02
(1,4,2): (1,3,2) -0.118929 (1,4,1) -0.234559 (1,4,3) 0.545200 (1,5,2) -9.026757E-02
(1,4,3): (1,3,3) -0.317854 (1,4,2) -0.545200 (1,4,4) 0.942240 (1,5,3) 5.355186E-02
(1,4,4): (1,3,4) -0.751957 (1,4,3) -0.942240 (1,4,5) 1.16104 (1,5,4) 0.711479
(1,4,5): (1,3,5) -1.39579 (1,4,4) -1.16104 (1,4,6) 0.365626 (1,5,5) 2.41509
(1,4,6): (1,3,6) -1.56658 (1,4,5) -0.365626 (1,4,7) -0.348240 (1,5,6) 2.52612
(1,4,7): (1,3,7) -1.39691 (1,4,6) 0.348240 (1,4,8) -1.13172 (1,5,7) 2.41032
(1,4,8): (1,3,8) -0.755417 (1,4,7) 1.13172 (1,4,9) -0.883294 (1,5,8) 0.698388
(1,4,9): (1,3,9) -0.328482 (1,4,8) 0.883294 (1,4,10) -0.425463 (1,5,9) 2.499177E-02
(1,4,10): (1,3,10) -0.152594 (1,4,9) 0.425463 (1,5,10) -0.139098
(1,5,1): (1,4,1) 9.746104E-02 (1,5,2) 0.241763 (1,6,1) -0.338499
(1,5,2): (1,4,2) 9.026757E-02 (1,5,1) -0.241763 (1,5,3) 0.689835 (1,6,2) -0.536267
(1,5,3): (1,4,3) -5.355186E-02 (1,5,2) -0.689835 (1,5,4) 1.60573 (1,6,3) -0.844777
(1,5,4): (1,4,4) -0.711479 (1,5,3) -1.60573 (1,5,5) 2.87156 (1,6,4) -0.494114
(1,5,5): (1,4,5) -2.41509 (1,5,4) -2.87156 (1,5,6) 0.474817 (1,6,5) 4.93059
(1,5,6): (1,4,6) -2.52612 (1,5,5) -0.474817 (1,5,7) -0.462096 (1,6,6) 3.61083
(1,5,7): (1,4,7) -2.41032 (1,5,6) 0.462096 (1,5,8) -2.85034 (1,6,7) 4.91842
(1,5,8): (1,4,8) -0.698388 (1,5,7) 2.85034 (1,5,9) -1.56219 (1,6,8) -0.528638
(1,5,9): (1,4,9) -2.499177E-02 (1,5,8) 1.56219 (1,5,10) -0.590270 (1,6,9) -0.931482
(1,5,10): (1,4,10) 0.139098 (1,5,9) 0.590270 (1,6,10) -0.733848
(1,6,1): (1,5,1) 0.338499 (1,6,2) 4.456918E-02 (1,7,1) -0.499694
(1,6,2): (1,5,2) 0.536267 (1,6,1) -4.456918E-02 (1,6,3) 0.381786 (1,7,2) -1.00749
(1,6,3): (1,5,3) 0.844777 (1,6,2) -0.381786 (1,6,4) 1.96022 (1,7,3) -2.56459
(1,6,4): (1,5,4) 0.494114 (1,6,3) -1.96022 (1,6,5) 8.45288 (1,7,4) -7.08684
(1,6,5): (1,5,5) -4.93059 (1,6,4) -8.45288 (1,6,6) -0.802753 (1,7,5) -21.6625
(1,6,6): (1,5,6) -3.61083 (1,6,5) 0.802753 (1,6,7) 0.803753 (1,7,6) -33.7982
(1,6,7): (1,5,7) -4.91842 (1,6,6) -0.803753 (1,6,8) -8.45503 (1,7,7) -21.6767
(1,6,8): (1,5,8) 0.528638 (1,6,7) 8.45503 (1,6,9) -1.96911 (1,7,8) -7.12996
(1,6,9): (1,5,9) 0.931482 (1,6,8) 1.96911 (1,6,10) -0.393280 (1,7,9) -2.68257
(1,6,10): (1,5,10) 0.733848 (1,6,9) 0.393280 (1,7,10) -1.31993
(1,7,1): (1,6,1) 0.499694 (1,7,2) -0.460481 (1,8,1) -0.262934
(1,7,2): (1,6,2) 1.00749 (1,7,1) 0.460481 (1,7,3) -1.15530 (1,8,2) -0.574044
(1,7,3): (1,6,3) 2.56459 (1,7,2) 1.15530 (1,7,4) -2.40329 (1,8,3) -1.61698
(1,7,4): (1,6,4) 7.08684 (1,7,3) 2.40329 (1,7,5) -4.84789 (1,8,4) -4.92966
(1,7,5): (1,6,5) 21.6625 (1,7,4) 4.84789 (1,7,6) -10.8074 (1,8,5) -15.8977
(1,7,6): (1,6,6) 33.7982 (1,7,5) 10.8074 (1,7,7) 10.7953 (1,8,6) -55.5039
(1,7,7): (1,6,7) 21.6767 (1,7,6) -10.7953 (1,7,8) 4.81584 (1,8,7) -15.9035
(1,7,8): (1,6,8) 7.12996 (1,7,7) -4.81584 (1,7,9) 2.31782 (1,8,8) -4.95018
(1,7,9): (1,6,9) 2.68257 (1,7,8) -2.31782 (1,7,10) 0.947751 (1,8,9) -1.67638
(1,7,10): (1,6,10) 1.31993 (1,7,9) -0.947751 (1,8,10) -0.741047
(1,8,1): (1,7,1) 0.262934 (1,8,2) -0.772217 (1,9,1) 0.239142
(1,8,2): (1,7,2) 0.574044 (1,8,1) 0.772217 (1,8,3) -2.20453 (1,9,2) 0.536522
(1,8,3): (1,7,3) 1.61698 (1,8,2) 2.20453 (1,8,4) -5.74422 (1,9,3) 1.53309
(1,8,4): (1,7,4) 4.92966 (1,8,3) 5.74422 (1,8,5) -15.8052 (1,9,4) 4.71312
(1,8,5): (1,7,5) 15.8977 (1,8,4) 15.8052 (1,8,6) -47.4123 (1,9,5) 15.3618
(1,8,6): (1,7,6) 55.5039 (1,8,5) 47.4123 (1,8,7) 47.3839 (1,9,6) 54.6065
(1,8,7): (1,7,7) 15.9035 (1,8,6) -47.3839 (1,8,8) 15.7516 (1,9,7) 15.3660
(1,8,8): (1,7,8) 4.95018 (1,8,7) -15.7516 (1,8,9) 5.61445 (1,9,8) 4.73040
(1,8,9): (1,7,9) 1.67638 (1,8,8) -5.61445 (1,8,10) 1.88510 (1,9,9) 1.58654
(1,8,10): (1,7,10) 0.741047 (1,8,9) -1.88510 (1,9,10) 0.692296
(1,9,1): (1,8,1) -0.239142 (1,9,2) -0.474125 (1,10,1) 0.482013
(1,9,2): (1,8,2) -0.536522 (1,9,1) 0.474125 (1,9,3) -1.20107 (1,10,2) 0.979333
(1,9,3): (1,8,3) -1.53309 (1,9,2) 1.20107 (1,9,4) -2.52970 (1,10,3) 2.49346
(1,9,4): (1,8,4) -4.71312 (1,9,3) 2.52970 (1,9,5) -5.10634 (1,10,4) 6.83476
(1,9,5): (1,8,5) -15.3618 (1,9,4) 5.10634 (1,9,6) -10.8421 (1,10,5) 20.5764
(1,9,6): (1,8,6) -54.6065 (1,9,5) 10.8421 (1,9,7) 10.8285 (1,10,6) 32.4418
(1,9,7): (1,8,7) -15.3660 (1,9,6) -10.8285 (1,9,8) 5.07236 (1,10,7) 20.5893
(1,9,8): (1,8,8) -4.73040 (1,9,7) -5.07236 (1,9,9) 2.44128 (1,10,8) 6.87534
(1,9,9): (1,8,9) -1.58654 (1,9,8) -2.44128 (1,9,10) 0.988085 (1,10,9) 2.60687
(1,9,10): (1,8,10) -0.692296 (1,9,9) -0.988085 (1,10,10) 1.28336
(1,10,1): (1,9,1) -0.482013 (1,10,2) 2.069756E-02 (1,11,1) 0.332787
(1,10,2): (1,9,2) -0.979333 (1,10,1) -2.069756E-02 (1,10,3) 0.294714 (1,11,2) 0.535678
(1,10,3): (1,9,3) -2.49346 (1,10,2) -0.294714 (1,10,4) 1.66433 (1,11,3) 0.873985
(1,10,4): (1,9,4) -6.83476 (1,10,3) -1.66433 (1,10,5) 7.44823 (1,11,4) 0.669710
(1,10,5): (1,9,5) -20.5764 (1,10,4) -7.44823 (1,10,6) -0.987920 (1,11,5) -4.06192
(1,10,6): (1,9,6) -32.4418 (1,10,5) 0.987920 (1,10,7) 0.986543 (1,11,6) -2.65325
(1,10,7): (1,9,7) -20.5893 (1,10,6) -0.986543 (1,10,8) -7.45357 (1,11,7) -4.05040
(1,10,8): (1,9,8) -6.87534 (1,10,7) 7.45357 (1,10,9) -1.67810 (1,11,8) 0.703015
(1,10,9): (1,9,9) -2.60687 (1,10,8) 1.67810 (1,10,10) -0.315363 (1,11,9) 0.958804
(1,10,10): (1,9,10) -1.28336 (1,10,9) 0.315363 (1,11,10) 0.731503
(1,11,1): (1,10,1) -0.332787 (1,11,2) 0.222962 (1,12,1) 0.100060
(1,11,2): (1,10,2) -0.535678 (1,11,1) -0.222962 (1,11,3) 0.632229 (1,12,2) 9.994769E-02
(1,11,3): (1,10,3) -0.873985 (1,11,2) -0.632229 (1,11,4) 1.45843 (1,12,3) -1.587786E-02
(1,11,4): (1,10,4) -0.669710 (1,11,3) -1.45843 (1,11,5) 2.58417 (1,12,4) -0.586044
(1,11,5): (1,10,5) 4.06192 (1,11,4) -2.58417 (1,11,6) 0.386044 (1,12,5) -2.08804
(1,11,6): (1,10,6) 2.65325 (1,11,5) -0.386044 (1,11,7) -0.376251 (1,12,6) -2.14192
(1,11,7): (1,10,7) 4.05040 (1,11,6) 0.376251 (1,11,8) -2.56680 (1,12,7) -2.08327
(1,11,8): (1,10,8) -0.703015 (1,11,7) 2.56680 (1,11,9) -1.42048 (1,12,8) -0.572916
(1,11,9): (1,10,9) -0.958804 (1,11,8) 1.42048 (1,11,10) -0.541753 (1,12,9) 1.300336E-02
(1,11,10): (1,10,10) -0.731503 (1,11,9) 0.541753 (1,12,10) 0.150676
(1,12,1): (1,11,1) -0.100060 (1,12,2) 0.222849 (1,13,1) -4.388838E-02
(1,12,2): (1,11,2) -9.994769E-02 (1,12,1) -0.222849 (1,12,3) 0.515800 (1,13,2) -0.108152
(1,12,3): (1,11,3) 1.587786E-02 (1,12,2) -0.515800 (1,12,4) 0.883539 (1,13,3) -0.293142
(1,12,4): (1,11,4) 0.586044 (1,12,3) -0.883539 (1,12,5) 1.07548 (1,13,4) -0.692624
(1,12,5): (1,11,5) 2.08804 (1,12,4) -1.07548 (1,12,6) 0.332899 (1,13,5) -1.27832
(1,12,6): (1,11,6) 2.14192 (1,12,5) -0.332899 (1,12,7) -0.318415 (1,13,6) -1.42775
(1,12,7): (1,11,7) 2.08327 (1,12,6) 0.318415 (1,12,8) -1.04988 (1,13,7) -1.27905
(1,12,8): (1,11,8) 0.572916 (1,12,7) 1.04988 (1,12,9) -0.829841 (1,13,8) -0.695242
(1,12,9): (1,11,9) -1.300336E-02 (1,12,8) 0.829841 (1,12,10) -0.403553 (1,13,9) -0.302212
(1,12,10): (1,11,10) -0.150676 (1,12,9) 0.403553 (1,13,10) -0.138741
(1,13,1): (1,12,1) 4.388838E-02 (1,13,2) 0.158513 (1,14,1) -8.197124E-02
(1,13,2): (1,12,2) 0.108152 (1,13,1) -0.158513 (1,13,3) 0.330408 (1,14,2) -0.140863
(1,13,3): (1,12,3) 0.293142 (1,13,2) -0.330408 (1,13,4) 0.483328 (1,14,3) -0.276590
(1,13,4): (1,12,4) 0.692624 (1,13,3) -0.483328 (1,13,5) 0.490893 (1,14,4) -0.500986
(1,13,5): (1,12,5) 1.27832 (1,13,4) -0.490893 (1,13,6) 0.184954 (1,14,5) -0.753862
(1,13,6): (1,12,6) 1.42775 (1,13,5) -0.184954 (1,13,7) -0.171221 (1,14,6) -0.843732
(1,13,7): (1,12,7) 1.27905 (1,13,6) 0.171221 (1,13,8) -0.467315 (1,14,7) -0.756677
(1,13,8): (1,12,8) 0.695242 (1,13,7) 0.467315 (1,13,9) -0.436307 (1,14,8) -0.509145
(1,13,9): (1,12,9) 0.302212 (1,13,8) 0.436307 (1,13,10) -0.239920 (1,14,9) -0.297054
(1,13,10): (1,12,10) 0.138741 (1,13,9) 0.239920 (1,14,10) -0.189319
(1,14,1): (1,13,1) 8.197124E-02 (1,14,2) 9.961073E-02 (1,15,1) -5.434174E-02
(1,14,2): (1,13,2) 0.140863 (1,14,1) -9.961073E-02 (1,14,3) 0.194611 (1,15,2) -8.573307E-02
(1,14,3): (1,13,3) 0.276590 (1,14,2) -0.194611 (1,14,4) 0.258970 (1,15,3) -0.152127
(1,14,4): (1,13,4) 0.500986 (1,14,3) -0.258970 (1,14,5) 0.238653 (1,15,4) -0.249732
(1,14,5): (1,13,5) 0.753862 (1,14,4) -0.238653 (1,14,6) 9.564555E-02 (1,15,5) -0.347525
(1,14,6): (1,13,6) 0.843732 (1,14,5) -9.564555E-02 (1,14,7) -8.472186E-02 (1,15,6) -0.385693
(1,14,7): (1,13,7) 0.756677 (1,14,6) 8.472186E-02 (1,14,8) -0.220468 (1,15,7) -0.349612
(1,14,8): (1,13,8) 0.509145 (1,14,7) 0.220468 (1,14,9) -0.224366 (1,15,8) -0.255615
(1,14,9): (1,13,9) 0.297054 (1,14,8) 0.224366 (1,14,10) -0.132245 (1,15,9) -0.166146
(1,14,10): (1,13,10) 0.189319 (1,14,9) 0.132245 (1,15,10) -0.116572
(1,15,1): (1,14,1) 5.434174E-02 (1,15,2) 6.821508E-02
(1,15,2): (1,14,2) 8.573307E-02 (1,15,1) -6.821508E-02 (1,15,3) 0.128189
(1,15,3): (1,14,3) 0.152127 (1,15,2) -0.128189 (1,15,4) 0.161356
(1,15,4): (1,14,4) 0.249732 (1,15,3) -0.161356 (1,15,5) 0.140964
(1,15,5): (1,14,5) 0.347525 (1,15,4) -0.140964 (1,15,6) 5.758524E-02
(1,15,6): (1,14,6) 0.385693 (1,15,5) -5.758524E-02 (1,15,7) -4.874606E-02
(1,15,7): (1,14,7) 0.349612 (1,15,6) 4.874606E-02 (1,15,8) -0.126590
(1,15,8): (1,14,8) 0.255615 (1,15,7) 0.126590 (1,15,9) -0.134924
(1,15,9): (1,14,9) 0.166146 (1,15,8) 0.134924 (1,15,10) -8.268777E-02
(1,15,10): (1,14,10) 0.116572 (1,15,9) 8.268777E-02

 WEL PACKAGE (WEL-1) FLOW RATES   PERIOD      2   STEP       88
 ----------------------------------------------------------------------------------------
   NUMBER   CELLID                    RATE       NAME                                    
 ----------------------------------------------------------------------------------------
     1      (1,8,6)              -204.96059      WEL                                     
 ----------------------------------------------------------------------------------------




 DRN PACKAGE (DRN-0) FLOW RATES   PERIOD      2   STEP       88
 ----------------------------------------------------------------------------------------
   NUMBER   CELLID                    RATE       NAME                                    
 ----------------------------------------------------------------------------------------
     1      (1,1,1)               0.0000000      SURF                                    
     2      (1,1,2)               0.0000000      SURF                                    
     3      (1,1,3)               0.0000000      SURF                                    
     4      (1,1,4)               0.0000000      SURF                                    
     5      (1,1,5)               0.0000000      SURF                                    
     6      (1,1,6)               0.0000000      SURF                                    
     7      (1,1,7)               0.0000000      SURF                                    
     8      (1,1,8)               0.0000000      SURF                                    
     9      (1,1,9)               0.0000000      SURF                                    
     10     (1,1,10)              0.0000000      SURF                                    
     11     (1,2,1)               0.0000000      SURF                                    
     12     (1,2,2)               0.0000000      SURF                                    
     13     (1,2,3)               0.0000000      SURF                                    
     14     (1,2,4)               0.0000000      SURF                                    
     15     (1,2,5)               0.0000000      SURF                                    
     16     (1,2,6)               0.0000000      SURF                                    
     17     (1,2,7)               0.0000000      SURF                                    
     18     (1,2,8)               0.0000000      SURF                                    
     19     (1,2,9)               0.0000000      SURF                                    
     20     (1,2,10)              0.0000000      SURF                                    
     21     (1,3,1)               0.0000000      SURF                                    
     22     (1,3,2)               0.0000000      SURF                                    
     23     (1,3,3)               0.0000000      SURF                                    
     24     (1,3,4)               0.0000000      SURF                                    
     25     (1,3,5)               0.0000000      SURF                                    
     26     (1,3,6)               0.0000000      SURF                                    
     27     (1,3,7)               0.0000000      SURF                                    
     28     (1,3,8)               0.0000000      SURF                                    
     29     (1,3,9)               0.0000000      SURF                                    
     30     (1,3,10)              0.0000000      SURF                                    
     31     (1,4,1)               0.0000000      SURF                                    
     32     (1,4,2)               0.0000000      SURF                                    
     33     (1,4,3)               0.0000000      SURF                                    
     34     (1,4,4)               0.0000000      SURF                                    
     35     (1,4,5)               0.0000000      SURF                                    
     36     (1,4,6)               0.0000000      SURF                                    
     37     (1,4,7)               0.0000000      SURF                                    
     38     (1,4,8)               0.0000000      SURF                                    
     39     (1,4,9)               0.0000000      SURF                                    
     40     (1,4,10)              0.0000000      SURF                                    
     41     (1,5,1)               0.0000000      SURF                                    
     42     (1,5,2)               0.0000000      SURF                                    
     43     (1,5,3)               0.0000000      SURF                                    
     44     (1,5,4)               0.0000000      SURF                                    
     45     (1,5,5)               0.0000000      SURF                                    
     46     (1,5,6)               0.0000000      SURF                                    
     47     (1,5,7)               0.0000000      SURF                                    
     48     (1,5,8)               0.0000000      SURF                                    
     49     (1,5,9)               0.0000000      SURF                                    
     50     (1,5,10)              0.0000000      SURF                                    
     51     (1,6,1)               0.0000000      SURF                                    
     52     (1,6,2)               0.0000000      SURF                                    
     53     (1,6,3)               0.0000000      SURF                                    
     54     (1,6,4)               0.0000000      SURF                                    
     55     (1,6,5)               0.0000000      SURF                                    
     56     (1,6,6)               0.0000000      SURF                                    
     57     (1,6,7)              -3.09752068E-07 SURF                                    
     58     (1,6,8)               0.0000000      SURF                                    
     59     (1,6,9)               0.0000000      SURF                                    
     60     (1,6,10)              0.0000000      SURF                                    
     61     (1,7,1)               0.0000000      SURF                                    
     62     (1,7,2)               0.0000000      SURF                                    
     63     (1,7,3)               0.0000000      SURF                                    
     64     (1,7,4)               0.0000000      SURF                                    
     65     (1,7,5)               0.0000000      SURF                                    
     66     (1,7,6)               0.0000000      SURF                                    
     67     (1,7,7)               0.0000000      SURF                                    
     68     (1,7,8)               0.0000000      SURF                                    
     69     (1,7,9)               0.0000000      SURF                                    
     70     (1,7,10)              0.0000000      SURF                                    
     71     (1,8,1)               0.0000000      SURF                                    
     72     (1,8,2)               0.0000000      SURF                                    
     73     (1,8,3)               0.0000000      SURF                                    
     74     (1,8,4)               0.0000000      SURF                                    
     75     (1,8,5)               0.0000000      SURF                                    
     76     (1,8,6)               0.0000000      SURF                                    
     77     (1,8,7)               0.0000000      SURF                                    
     78     (1,8,8)               0.0000000      SURF                                    
     79     (1,8,9)               0.0000000      SURF                                    
     80     (1,8,10)              0.0000000      SURF                                    
     81     (1,9,1)               0.0000000      SURF                                    
     82     (1,9,2)               0.0000000      SURF                                    
     83     (1,9,3)               0.0000000      SURF                                    
     84     (1,9,4)               0.0000000      SURF                                    
     85     (1,9,5)               0.0000000      SURF                                    
     86     (1,9,6)               0.0000000      SURF                                    
     87     (1,9,7)               0.0000000      SURF                                    
     88     (1,9,8)               0.0000000      SURF                                    
     89     (1,9,9)               0.0000000      SURF                                    
     90     (1,9,10)              0.0000000      SURF                                    
     91     (1,10,1)              0.0000000      SURF                                    
     92     (1,10,2)              0.0000000      SURF                                    
     93     (1,10,3)              0.0000000      SURF                                    
     94     (1,10,4)              0.0000000      SURF                                    
     95     (1,10,5)              0.0000000      SURF                                    
     96     (1,10,6)              0.0000000      SURF                                    
     97     (1,10,7)              0.0000000      SURF                                    
     98     (1,10,8)              0.0000000      SURF                                    
     99     (1,10,9)              0.0000000      SURF                                    
    100     (1,10,10)             0.0000000      SURF                                    
    101     (1,11,1)              0.0000000      SURF                                    
    102     (1,11,2)              0.0000000      SURF                                    
    103     (1,11,3)              0.0000000      SURF                                    
    104     (1,11,4)              0.0000000      SURF                                    
    105     (1,11,5)              0.0000000      SURF                                    
    106     (1,11,6)              0.0000000      SURF                                    
    107     (1,11,7)              0.0000000      SURF                                    
    108     (1,11,8)              0.0000000      SURF                                    
    109     (1,11,9)              0.0000000      SURF                                    
    110     (1,11,10)             0.0000000      SURF                                    
    111     (1,12,1)              0.0000000      SURF                                    
    112     (1,12,2)              0.0000000      SURF                                    
    113     (1,12,3)              0.0000000      SURF                                    
    114     (1,12,4)              0.0000000      SURF                                    
    115     (1,12,5)              0.0000000      SURF                                    
    116     (1,12,6)              0.0000000      SURF                                    
    117     (1,12,7)              0.0000000      SURF                                    
    118     (1,12,8)              0.0000000      SURF                                    
    119     (1,12,9)              0.0000000      SURF                                    
    120     (1,12,10)             0.0000000      SURF                                    
    121     (1,13,1)              0.0000000      SURF                                    
    122     (1,13,2)              0.0000000      SURF                                    
    123     (1,13,3)              0.0000000      SURF                                    
    124     (1,13,4)              0.0000000      SURF                                    
    125     (1,13,5)              0.0000000      SURF                                    
    126     (1,13,6)              0.0000000      SURF                                    
    127     (1,13,7)              0.0000000      SURF                                    
    128     (1,13,8)              0.0000000      SURF                                    
    129     (1,13,9)              0.0000000      SURF                                    
    130     (1,13,10)             0.0000000      SURF                                    
    131     (1,14,1)              0.0000000      SURF                                    
    132     (1,14,2)              0.0000000      SURF                                    
    133     (1,14,3)              0.0000000      SURF                                    
    134     (1,14,4)              0.0000000      SURF                                    
    135     (1,14,5)              0.0000000      SURF                                    
    136     (1,14,6)              0.0000000      SURF                                    
    137     (1,14,7)              0.0000000      SURF                                    
    138     (1,14,8)              0.0000000      SURF                                    
    139     (1,14,9)              0.0000000      SURF                                    
    140     (1,14,10)             0.0000000      SURF                                    
    141     (1,15,1)              0.0000000      SURF                                    
    142     (1,15,2)              0.0000000      SURF                                    
    143     (1,15,3)              0.0000000      SURF                                    
    144     (1,15,4)              0.0000000      SURF                                    
    145     (1,15,5)              0.0000000      SURF                                    
    146     (1,15,6)              0.0000000      SURF                                    
    147     (1,15,7)              0.0000000      SURF                                    
    148     (1,15,8)              0.0000000      SURF                                    
    149     (1,15,9)              0.0000000      SURF                                    
    150     (1,15,10)             0.0000000      SURF                                    
 ----------------------------------------------------------------------------------------




 API PACKAGE (MAR) FLOW RATES   PERIOD      2   STEP       88
 -----------------------------------------------
   NUMBER   CELLID                    RATE      
 -----------------------------------------------
     1      (1,6,5)               35.853892     
     2      (1,6,6)               35.853892     
     3      (1,6,7)               35.853892     
     4      (1,10,5)              32.466305     
     5      (1,10,6)              32.466305     
     6      (1,10,7)              32.466305     
 -----------------------------------------------



1
  HEAD IN LAYER   1 AT END OF TIME STEP  88 IN STRESS PERIOD    2
  ---------------------------------------------------------------------------

            1           2           3           4           5           6           7           8           9          10
 ........................................................................................................................
   1   2.1120E-02  2.8369E-02  4.1910E-02  5.8848E-02  7.3592E-02  7.9641E-02  7.4643E-02  6.1555E-02  4.7568E-02  3.8975E-02
   2   2.6970E-02  3.7427E-02  5.7749E-02  8.4663E-02  0.1094      0.1194      0.1107      8.8011E-02  6.4903E-02  5.1266E-02
   3   3.5823E-02  5.2331E-02  8.6617E-02  0.1367      0.1876      0.2068      0.1892      0.1409      9.5949E-02  7.1245E-02
   4   4.0842E-02  6.4148E-02  0.1180      0.2103      0.3228      0.3581      0.3245      0.2149      0.1284      8.6374E-02
   5   3.1135E-02  5.5179E-02  0.1233      0.2795      0.5517      0.5965      0.5529      0.2828      0.1308      7.2583E-02
   6  -2.6097E-03  1.8464E-03  3.9873E-02  0.2315      0.9999      0.9269       1.000      0.2314      3.8903E-02 -2.7274E-04
   7  -5.2592E-02 -9.8884E-02 -0.2156     -0.4612     -0.9694      -2.166     -0.9706     -0.4655     -0.2283     -0.1323    
   8  -7.9025E-02 -0.1569     -0.3808     -0.9780      -2.730      -9.251      -2.732     -0.9847     -0.3999     -0.2074    
   9  -5.4978E-02 -0.1027     -0.2240     -0.4828      -1.019      -2.227      -1.021     -0.4874     -0.2374     -0.1372    
  10  -6.7444E-03 -4.6737E-03  2.4725E-02  0.1881      0.8731      0.7822      0.8730      0.1875      2.2739E-02 -8.7261E-03
  11   2.6447E-02  4.8635E-02  0.1112      0.2534      0.4995      0.5362      0.5005      0.2560      0.1175      6.3959E-02
  12   3.6416E-02  5.8571E-02  0.1096      0.1962      0.3007      0.3329      0.3021      0.2001      0.1188      7.8909E-02
  13   3.2043E-02  4.7819E-02  8.0596E-02  0.1283      0.1766      0.1947      0.1779      0.1320      8.8924E-02  6.5143E-02
  14   2.3872E-02  3.3800E-02  5.3158E-02  7.8852E-02  0.1025      0.1119      0.1036      8.1735E-02  5.9480E-02  4.6334E-02
  15   1.8451E-02  2.5255E-02  3.8026E-02  5.4075E-02  6.8076E-02  7.3792E-02  6.8953E-02  5.6381E-02  4.2964E-02  3.4731E-02

 HEAD WILL BE SAVED ON UNIT 1100 AT END OF TIME STEP   88, STRESS PERIOD    2


  VOLUME BUDGET FOR ENTIRE MODEL AT END OF TIME STEP   88, STRESS PERIOD   2
  ---------------------------------------------------------------------------------------------------

     CUMULATIVE VOLUME      L**3       RATES FOR THIS TIME STEP      L**3/T          PACKAGE NAME    
     ------------------                 ------------------------                     ----------------

           IN:                                      IN:
           ---                                      ---
              STO-SS =          25.4026                STO-SS =       7.8358E-03     STORAGE                          
              STO-SY =       62426.5905                STO-SY =          16.2298     STORAGE                          
                 WEL =           0.0000                   WEL =           0.0000     WEL-1                            
                 DRN =           0.0000                   DRN =           0.0000     DRN-0                            
                 API =      180074.9537                   API =         204.9606     MAR                              
                 CHD =       2.0279E-08                   CHD =           0.0000     CHD_0                            

            TOTAL IN =      242526.9468              TOTAL IN =         221.1982

          OUT:                                     OUT:
          ----                                     ----
              STO-SS =          21.9338                STO-SS =       8.2118E-03     STORAGE                          
              STO-SY =       42861.2529                STO-SY =          16.2294     STORAGE                          
                 WEL =      199643.7599                   WEL =         204.9606     WEL-1                            
                 DRN =       2.9150E-04                   DRN =       3.0975E-07     DRN-0                            
                 API =           0.0000                   API =           0.0000     MAR                              
                 CHD =       2.0705E-08                   CHD =           0.0000     CHD_0                            

           TOTAL OUT =      242526.9468             TOTAL OUT =         221.1982

            IN - OUT =      -9.5341E-07              IN - OUT =       7.5894E-10

 PERCENT DISCREPANCY =          -0.00     PERCENT DISCREPANCY =           0.00




         TIME SUMMARY AT END OF TIME STEP   88 IN STRESS PERIOD    2
                    SECONDS     MINUTES      HOURS       DAYS        YEARS
                    -----------------------------------------------------------
   TIME STEP LENGTH 8.64000E+05  14400.      240.00      10.000     2.73785E-02
 STRESS PERIOD TIME 7.60320E+07 1.26720E+06  21120.      880.00      2.4093    
         TOTAL TIME 7.61184E+07 1.26864E+06  21144.      881.00      2.4120    


end timestep


start timestep kper="2" kstp="89" mode="normal"

 UBDSV1 SAVING           STO-SS ON UNIT   1099 AT TIME STEP     89, STRESS PERIOD      2
 UBDSV1 SAVING           STO-SY ON UNIT   1099 AT TIME STEP     89, STRESS PERIOD      2
 UBDSV1 SAVING     FLOW-JA-FACE ON UNIT   1099 AT TIME STEP     89, STRESS PERIOD      2
 UBDSV06 SAVING       DATA-SPDIS IN MODEL GWF              PACKAGE NPF             CONNECTED TO MODEL GWF              PACKAGE NPF              ON UNIT   1099 AT TIME STEP     89, STRESS PERIOD      2
 UBDSV06 SAVING              WEL IN MODEL GWF              PACKAGE GWF             CONNECTED TO MODEL GWF              PACKAGE WEL-1            ON UNIT   1099 AT TIME STEP     89, STRESS PERIOD      2
 UBDSV06 SAVING              DRN IN MODEL GWF              PACKAGE GWF             CONNECTED TO MODEL GWF              PACKAGE DRN-0            ON UNIT   1099 AT TIME STEP     89, STRESS PERIOD      2
 UBDSV06 SAVING              API IN MODEL GWF              PACKAGE GWF             CONNECTED TO MODEL GWF              PACKAGE MAR              ON UNIT   1099 AT TIME STEP     89, STRESS PERIOD      2
 UBDSV06 SAVING              CHD IN MODEL GWF              PACKAGE GWF             CONNECTED TO MODEL GWF              PACKAGE CHD_0            ON UNIT   1099 AT TIME STEP     89, STRESS PERIOD      2

    CALCULATED INTERCELL FLOW FOR PERIOD 2 STEP 89
(1,1,1): (1,1,2) 7.383228E-02 (1,2,1) 5.881273E-02
(1,1,2): (1,1,1) -7.383228E-02 (1,1,3) 0.137950 (1,2,2) 9.108977E-02
(1,1,3): (1,1,2) -0.137950 (1,1,4) 0.172619 (1,2,3) 0.159529
(1,1,4): (1,1,3) -0.172619 (1,1,5) 0.150346 (1,2,4) 0.260672
(1,1,5): (1,1,4) -0.150346 (1,1,6) 6.179155E-02 (1,2,5) 0.362734
(1,1,6): (1,1,5) -6.179155E-02 (1,1,7) -5.076104E-02 (1,2,6) 0.402768
(1,1,7): (1,1,6) 5.076104E-02 (1,1,8) -0.133114 (1,2,7) 0.365133
(1,1,8): (1,1,7) 0.133114 (1,1,9) -0.142186 (1,2,8) 0.267246
(1,1,9): (1,1,8) 0.142186 (1,1,10) -8.728667E-02 (1,2,9) 0.174732
(1,1,10): (1,1,9) 8.728667E-02 (1,2,10) 0.123754
(1,2,1): (1,1,1) -5.881273E-02 (1,2,2) 0.106114 (1,3,1) 8.840944E-02
(1,2,2): (1,1,2) -9.108977E-02 (1,2,1) -0.106114 (1,2,3) 0.206421 (1,3,2) 0.149304
(1,2,3): (1,1,3) -0.159529 (1,2,2) -0.206421 (1,2,4) 0.273775 (1,3,3) 0.290608
(1,2,4): (1,1,4) -0.260672 (1,2,3) -0.273775 (1,2,5) 0.252298 (1,3,4) 0.526659
(1,2,5): (1,1,5) -0.362734 (1,2,4) -0.252298 (1,2,6) 0.101709 (1,3,5) 0.795831
(1,2,6): (1,1,6) -0.402768 (1,2,5) -0.101709 (1,2,7) -8.828105E-02 (1,3,6) 0.892428
(1,2,7): (1,1,7) -0.365133 (1,2,6) 8.828105E-02 (1,2,8) -0.230873 (1,3,7) 0.799090
(1,2,8): (1,1,8) -0.267246 (1,2,7) 0.230873 (1,2,9) -0.234670 (1,3,8) 0.535780
(1,2,9): (1,1,9) -0.174732 (1,2,8) 0.234670 (1,2,10) -0.138246 (1,3,9) 0.312720
(1,2,10): (1,1,10) -0.123754 (1,2,9) 0.138246 (1,3,10) 0.200439
(1,3,1): (1,2,1) -8.840944E-02 (1,3,2) 0.167019 (1,4,1) 4.830572E-02
(1,3,2): (1,2,2) -0.149304 (1,3,1) -0.167019 (1,3,3) 0.347804 (1,4,2) 0.116509
(1,3,3): (1,2,3) -0.290608 (1,3,2) -0.347804 (1,3,4) 0.509787 (1,4,3) 0.315049
(1,3,4): (1,2,4) -0.526659 (1,3,3) -0.509787 (1,3,5) 0.520765 (1,4,4) 0.749060
(1,3,5): (1,2,5) -0.795831 (1,3,4) -0.520765 (1,3,6) 0.197672 (1,4,5) 1.39313
(1,3,6): (1,2,6) -0.892428 (1,3,5) -0.197672 (1,3,7) -0.180992 (1,4,6) 1.56409
(1,3,7): (1,2,7) -0.799090 (1,3,6) 0.180992 (1,3,8) -0.493416 (1,4,7) 1.39413
(1,3,8): (1,2,8) -0.535780 (1,3,7) 0.493416 (1,3,9) -0.457561 (1,4,8) 0.752211
(1,3,9): (1,2,9) -0.312720 (1,3,8) 0.457561 (1,3,10) -0.250459 (1,4,9) 0.325076
(1,3,10): (1,2,10) -0.200439 (1,3,9) 0.250459 (1,4,10) 0.149182
(1,4,1): (1,3,1) -4.830572E-02 (1,4,2) 0.235302 (1,5,1) -0.101776
(1,4,2): (1,3,2) -0.116509 (1,4,1) -0.235302 (1,4,3) 0.546793 (1,5,2) -9.523735E-02
(1,4,3): (1,3,3) -0.315049 (1,4,2) -0.546793 (1,4,4) 0.944606 (1,5,3) 4.779929E-02
(1,4,4): (1,3,4) -0.749060 (1,4,3) -0.944606 (1,4,5) 1.16347 (1,5,4) 0.705528
(1,4,5): (1,3,5) -1.39313 (1,4,4) -1.16347 (1,4,6) 0.366772 (1,5,5) 2.40976
(1,4,6): (1,3,6) -1.56409 (1,4,5) -0.366772 (1,4,7) -0.349076 (1,5,6) 2.52118
(1,4,7): (1,3,7) -1.39413 (1,4,6) 0.349076 (1,4,8) -1.13379 (1,5,7) 2.40472
(1,4,8): (1,3,8) -0.752211 (1,4,7) 1.13379 (1,4,9) -0.885237 (1,5,8) 0.691805
(1,4,9): (1,3,9) -0.325076 (1,4,8) 0.885237 (1,4,10) -0.426525 (1,5,9) 1.803583E-02
(1,4,10): (1,3,10) -0.149182 (1,4,9) 0.426525 (1,5,10) -0.146022
(1,5,1): (1,4,1) 0.101776 (1,5,2) 0.241850 (1,6,1) -0.344322
(1,5,2): (1,4,2) 9.523735E-02 (1,5,1) -0.241850 (1,5,3) 0.690641 (1,6,2) -0.543001
(1,5,3): (1,4,3) -4.779929E-02 (1,5,2) -0.690641 (1,5,4) 1.60794 (1,6,3) -0.852657
(1,5,4): (1,4,4) -0.705528 (1,5,3) -1.60794 (1,5,5) 2.87474 (1,6,4) -0.502166
(1,5,5): (1,4,5) -2.40976 (1,5,4) -2.87474 (1,5,6) 0.476348 (1,6,5) 4.92450
(1,5,6): (1,4,6) -2.52118 (1,5,5) -0.476348 (1,5,7) -0.463577 (1,6,6) 3.60576
(1,5,7): (1,4,7) -2.40472 (1,5,6) 0.463577 (1,5,8) -2.85354 (1,6,7) 4.91197
(1,5,8): (1,4,8) -0.691805 (1,5,7) 2.85354 (1,5,9) -1.56456 (1,6,8) -0.537524
(1,5,9): (1,4,9) -1.803583E-02 (1,5,8) 1.56456 (1,5,10) -0.591294 (1,6,9) -0.940957
(1,5,10): (1,4,10) 0.146022 (1,5,9) 0.591294 (1,6,10) -0.743171
(1,6,1): (1,5,1) 0.344322 (1,6,2) 4.376127E-02 (1,7,1) -0.504940
(1,6,2): (1,5,2) 0.543001 (1,6,1) -4.376127E-02 (1,6,3) 0.381468 (1,7,2) -1.01367
(1,6,3): (1,5,3) 0.852657 (1,6,2) -0.381468 (1,6,4) 1.96224 (1,7,3) -2.57221
(1,6,4): (1,5,4) 0.502166 (1,6,3) -1.96224 (1,6,5) 8.45855 (1,7,4) -7.09584
(1,6,5): (1,5,5) -4.92450 (1,6,4) -8.45855 (1,6,6) -0.800289 (1,7,5) -21.6732
(1,6,6): (1,5,6) -3.60576 (1,6,5) 0.800289 (1,6,7) 0.800990 (1,7,6) -33.8072
(1,6,7): (1,5,7) -4.91197 (1,6,6) -0.800990 (1,6,8) -8.46124 (1,7,7) -21.6877
(1,6,8): (1,5,8) 0.537524 (1,6,7) 8.46124 (1,6,9) -1.97205 (1,7,8) -7.13968
(1,6,9): (1,5,9) 0.940957 (1,6,8) 1.97205 (1,6,10) -0.394166 (1,7,9) -2.69159
(1,6,10): (1,5,10) 0.743171 (1,6,9) 0.394166 (1,7,10) -1.32843
(1,7,1): (1,6,1) 0.504940 (1,7,2) -0.462196 (1,8,1) -0.265188
(1,7,2): (1,6,2) 1.01367 (1,7,1) 0.462196 (1,7,3) -1.15694 (1,8,2) -0.576921
(1,7,3): (1,6,3) 2.57221 (1,7,2) 1.15694 (1,7,4) -2.40223 (1,8,3) -1.62105
(1,7,4): (1,6,4) 7.09584 (1,7,3) 2.40223 (1,7,5) -4.84285 (1,8,4) -4.93509
(1,7,5): (1,6,5) 21.6732 (1,7,4) 4.84285 (1,7,6) -10.8023 (1,8,5) -15.9028
(1,7,6): (1,6,6) 33.8072 (1,7,5) 10.8023 (1,7,7) 10.7895 (1,8,6) -55.4986
(1,7,7): (1,6,7) 21.6877 (1,7,6) -10.7895 (1,7,8) 4.80980 (1,8,7) -15.9087
(1,7,8): (1,6,8) 7.13968 (1,7,7) -4.80980 (1,7,9) 2.31513 (1,8,8) -4.95588
(1,7,9): (1,6,9) 2.69159 (1,7,8) -2.31513 (1,7,10) 0.947257 (1,8,9) -1.68101
(1,7,10): (1,6,10) 1.32843 (1,7,9) -0.947257 (1,8,10) -0.744946
(1,8,1): (1,7,1) 0.265188 (1,8,2) -0.774556 (1,9,1) 0.240992
(1,8,2): (1,7,2) 0.576921 (1,8,1) 0.774556 (1,8,3) -2.20736 (1,9,2) 0.538223
(1,8,3): (1,7,3) 1.62105 (1,8,2) 2.20736 (1,8,4) -5.74437 (1,9,3) 1.53373
(1,8,4): (1,7,4) 4.93509 (1,8,3) 5.74437 (1,8,5) -15.7985 (1,9,4) 4.71015
(1,8,5): (1,7,5) 15.9028 (1,8,4) 15.7985 (1,8,6) -47.3908 (1,9,5) 15.3496
(1,8,6): (1,7,6) 55.4986 (1,8,5) 47.3908 (1,8,7) 47.3613 (1,9,6) 54.5725
(1,8,7): (1,7,7) 15.9087 (1,8,6) -47.3613 (1,8,8) 15.7435 (1,9,7) 15.3539
(1,8,8): (1,7,8) 4.95588 (1,8,7) -15.7435 (1,8,9) 5.61257 (1,9,8) 4.72769
(1,8,9): (1,7,9) 1.68101 (1,8,8) -5.61257 (1,8,10) 1.88531 (1,9,9) 1.58770
(1,8,10): (1,7,10) 0.744946 (1,8,9) -1.88531 (1,9,10) 0.694737
(1,9,1): (1,8,1) -0.240992 (1,9,2) -0.476611 (1,10,1) 0.487021
(1,9,2): (1,8,2) -0.538223 (1,9,1) 0.476611 (1,9,3) -1.20494 (1,10,2) 0.984829
(1,9,3): (1,8,3) -1.53373 (1,9,2) 1.20494 (1,9,4) -2.53337 (1,10,3) 2.49888
(1,9,4): (1,8,4) -4.71015 (1,9,3) 2.53337 (1,9,5) -5.10825 (1,10,4) 6.83705
(1,9,5): (1,8,5) -15.3496 (1,9,4) 5.10825 (1,9,6) -10.8378 (1,10,5) 20.5659
(1,9,6): (1,8,6) -54.5725 (1,9,5) 10.8378 (1,9,7) 10.8236 (1,10,6) 32.4235
(1,9,7): (1,8,7) -15.3539 (1,9,6) -10.8236 (1,9,8) 5.07325 (1,10,7) 20.5792
(1,9,8): (1,8,8) -4.72769 (1,9,7) -5.07325 (1,9,9) 2.44327 (1,10,8) 6.87834
(1,9,9): (1,8,9) -1.58770 (1,9,8) -2.44327 (1,9,10) 0.989584 (1,10,9) 2.61366
(1,9,10): (1,8,10) -0.694737 (1,9,9) -0.989584 (1,10,10) 1.29102
(1,10,1): (1,9,1) -0.487021 (1,10,2) 1.867937E-02 (1,11,1) 0.338679
(1,10,2): (1,9,2) -0.984829 (1,10,1) -1.867937E-02 (1,10,3) 0.290722 (1,11,2) 0.542751
(1,10,3): (1,9,3) -2.49888 (1,10,2) -0.290722 (1,10,4) 1.65745 (1,11,3) 0.883167
(1,10,4): (1,9,4) -6.83705 (1,10,3) -1.65745 (1,10,5) 7.43409 (1,11,4) 0.682217
(1,10,5): (1,9,5) -20.5659 (1,10,4) -7.43409 (1,10,6) -0.990126 (1,11,5) -4.04049
(1,10,6): (1,9,6) -32.4235 (1,10,5) 0.990126 (1,10,7) 0.988444 (1,11,6) -2.63130
(1,10,7): (1,9,7) -20.5792 (1,10,6) -0.988444 (1,10,8) -7.43998 (1,11,7) -4.02863
(1,10,8): (1,9,8) -6.87834 (1,10,7) 7.43998 (1,10,9) -1.67221 (1,11,8) 0.716346
(1,10,9): (1,9,9) -2.61366 (1,10,8) 1.67221 (1,10,10) -0.312917 (1,11,9) 0.969591
(1,10,10): (1,9,10) -1.29102 (1,10,9) 0.312917 (1,11,10) 0.741259
(1,11,1): (1,10,1) -0.338679 (1,11,2) 0.222106 (1,12,1) 0.104523
(1,11,2): (1,10,2) -0.542751 (1,11,1) -0.222106 (1,11,3) 0.630304 (1,12,2) 0.105534
(1,11,3): (1,10,3) -0.883167 (1,11,2) -0.630304 (1,11,4) 1.45493 (1,12,3) -8.149574E-03
(1,11,4): (1,10,4) -0.682217 (1,11,3) -1.45493 (1,11,5) 2.57899 (1,12,4) -0.575100
(1,11,5): (1,10,5) 4.04049 (1,11,4) -2.57899 (1,11,6) 0.384588 (1,12,5) -2.07276
(1,11,6): (1,10,6) 2.63130 (1,11,5) -0.384588 (1,11,7) -0.374761 (1,12,6) -2.12540
(1,11,7): (1,10,7) 4.02863 (1,11,6) 0.374761 (1,11,8) -2.56165 (1,12,7) -2.06773
(1,11,8): (1,10,8) -0.716346 (1,11,7) 2.56165 (1,11,9) -1.41719 (1,12,8) -0.561352
(1,11,9): (1,10,9) -0.969591 (1,11,8) 1.41719 (1,11,10) -0.540309 (1,12,9) 2.195451E-02
(1,11,10): (1,10,10) -0.741259 (1,11,9) 0.540309 (1,12,10) 0.158376
(1,12,1): (1,11,1) -0.104523 (1,12,2) 0.223118 (1,13,1) -4.174547E-02
(1,12,2): (1,11,2) -0.105534 (1,12,1) -0.223118 (1,12,3) 0.516036 (1,13,2) -0.105363
(1,12,3): (1,11,3) 8.149574E-03 (1,12,2) -0.516036 (1,12,4) 0.883234 (1,13,3) -0.289101
(1,12,4): (1,11,4) 0.575100 (1,12,3) -0.883234 (1,12,5) 1.07452 (1,13,4) -0.686793
(1,12,5): (1,11,5) 2.07276 (1,12,4) -1.07452 (1,12,6) 0.332662 (1,13,5) -1.27052
(1,12,6): (1,11,6) 2.12540 (1,12,5) -0.332662 (1,12,7) -0.317893 (1,13,6) -1.41923
(1,12,7): (1,11,7) 2.06773 (1,12,6) 0.317893 (1,12,8) -1.04859 (1,13,7) -1.27114
(1,12,8): (1,11,8) 0.561352 (1,12,7) 1.04859 (1,12,9) -0.829137 (1,13,8) -0.689119
(1,12,9): (1,11,9) -2.195451E-02 (1,12,8) 0.829137 (1,12,10) -0.403377 (1,13,9) -0.297575
(1,12,10): (1,11,10) -0.158376 (1,12,9) 0.403377 (1,13,10) -0.134879
(1,13,1): (1,12,1) 4.174547E-02 (1,13,2) 0.159427 (1,14,1) -8.156691E-02
(1,13,2): (1,12,2) 0.105363 (1,13,1) -0.159427 (1,13,3) 0.331891 (1,14,2) -0.140243
(1,13,3): (1,12,3) 0.289101 (1,13,2) -0.331891 (1,13,4) 0.484796 (1,14,3) -0.275536
(1,13,4): (1,12,4) 0.686793 (1,13,3) -0.484796 (1,13,5) 0.491860 (1,14,4) -0.499302
(1,13,5): (1,12,5) 1.27052 (1,13,4) -0.491860 (1,13,6) 0.185424 (1,14,5) -0.751518
(1,13,6): (1,12,6) 1.41923 (1,13,5) -0.185424 (1,13,7) -0.171292 (1,14,6) -0.841133
(1,13,7): (1,12,7) 1.27114 (1,13,6) 0.171292 (1,13,8) -0.467770 (1,14,7) -0.754321
(1,13,8): (1,12,8) 0.689119 (1,13,7) 0.467770 (1,13,9) -0.437069 (1,14,8) -0.507416
(1,13,9): (1,12,9) 0.297575 (1,13,8) 0.437069 (1,13,10) -0.240514 (1,14,9) -0.295880
(1,13,10): (1,12,10) 0.134879 (1,13,9) 0.240514 (1,14,10) -0.188440
(1,14,1): (1,13,1) 8.156691E-02 (1,14,2) 0.100739 (1,15,1) -5.453886E-02
(1,14,2): (1,13,2) 0.140243 (1,14,1) -0.100739 (1,14,3) 0.196523 (1,15,2) -8.591071E-02
(1,14,3): (1,13,3) 0.275536 (1,14,2) -0.196523 (1,14,4) 0.261062 (1,15,3) -0.152251
(1,14,4): (1,13,4) 0.499302 (1,14,3) -0.261062 (1,14,5) 0.240271 (1,15,4) -0.249753
(1,14,5): (1,13,5) 0.751518 (1,14,4) -0.240271 (1,14,6) 9.636596E-02 (1,15,5) -0.347424
(1,14,6): (1,13,6) 0.841133 (1,14,5) -9.636596E-02 (1,14,7) -8.503175E-02 (1,15,6) -0.385548
(1,14,7): (1,13,7) 0.754321 (1,14,6) 8.503175E-02 (1,14,8) -0.221541 (1,15,7) -0.349528
(1,14,8): (1,13,8) 0.507416 (1,14,7) 0.221541 (1,14,9) -0.225678 (1,15,8) -0.255671
(1,14,9): (1,13,9) 0.295880 (1,14,8) 0.225678 (1,14,10) -0.133131 (1,15,9) -0.166319
(1,14,10): (1,13,10) 0.188440 (1,14,9) 0.133131 (1,15,10) -0.116802
(1,15,1): (1,14,1) 5.453886E-02 (1,15,2) 6.936251E-02
(1,15,2): (1,14,2) 8.591071E-02 (1,15,1) -6.936251E-02 (1,15,3) 0.130154
(1,15,3): (1,14,3) 0.152251 (1,15,2) -0.130154 (1,15,4) 0.163549
(1,15,4): (1,14,4) 0.249753 (1,15,3) -0.163549 (1,15,5) 0.142701
(1,15,5): (1,14,5) 0.347424 (1,15,4) -0.142701 (1,15,6) 5.834895E-02
(1,15,6): (1,14,6) 0.385548 (1,15,5) -5.834895E-02 (1,15,7) -4.911717E-02
(1,15,7): (1,14,7) 0.349528 (1,15,6) 4.911717E-02 (1,15,8) -0.127801
(1,15,8): (1,14,8) 0.255671 (1,15,7) 0.127801 (1,15,9) -0.136352
(1,15,9): (1,14,9) 0.166319 (1,15,8) 0.136352 (1,15,10) -8.363079E-02
(1,15,10): (1,14,10) 0.116802 (1,15,9) 8.363079E-02

 WEL PACKAGE (WEL-1) FLOW RATES   PERIOD      2   STEP       89
 ----------------------------------------------------------------------------------------
   NUMBER   CELLID                    RATE       NAME                                    
 ----------------------------------------------------------------------------------------
     1      (1,8,6)              -204.87608      WEL                                     
 ----------------------------------------------------------------------------------------




 DRN PACKAGE (DRN-0) FLOW RATES   PERIOD      2   STEP       89
 ----------------------------------------------------------------------------------------
   NUMBER   CELLID                    RATE       NAME                                    
 ----------------------------------------------------------------------------------------
     1      (1,1,1)               0.0000000      SURF                                    
     2      (1,1,2)               0.0000000      SURF                                    
     3      (1,1,3)               0.0000000      SURF                                    
     4      (1,1,4)               0.0000000      SURF                                    
     5      (1,1,5)               0.0000000      SURF                                    
     6      (1,1,6)               0.0000000      SURF                                    
     7      (1,1,7)               0.0000000      SURF                                    
     8      (1,1,8)               0.0000000      SURF                                    
     9      (1,1,9)               0.0000000      SURF                                    
     10     (1,1,10)              0.0000000      SURF                                    
     11     (1,2,1)               0.0000000      SURF                                    
     12     (1,2,2)               0.0000000      SURF                                    
     13     (1,2,3)               0.0000000      SURF                                    
     14     (1,2,4)               0.0000000      SURF                                    
     15     (1,2,5)               0.0000000      SURF                                    
     16     (1,2,6)               0.0000000      SURF                                    
     17     (1,2,7)               0.0000000      SURF                                    
     18     (1,2,8)               0.0000000      SURF                                    
     19     (1,2,9)               0.0000000      SURF                                    
     20     (1,2,10)              0.0000000      SURF                                    
     21     (1,3,1)               0.0000000      SURF                                    
     22     (1,3,2)               0.0000000      SURF                                    
     23     (1,3,3)               0.0000000      SURF                                    
     24     (1,3,4)               0.0000000      SURF                                    
     25     (1,3,5)               0.0000000      SURF                                    
     26     (1,3,6)               0.0000000      SURF                                    
     27     (1,3,7)               0.0000000      SURF                                    
     28     (1,3,8)               0.0000000      SURF                                    
     29     (1,3,9)               0.0000000      SURF                                    
     30     (1,3,10)              0.0000000      SURF                                    
     31     (1,4,1)               0.0000000      SURF                                    
     32     (1,4,2)               0.0000000      SURF                                    
     33     (1,4,3)               0.0000000      SURF                                    
     34     (1,4,4)               0.0000000      SURF                                    
     35     (1,4,5)               0.0000000      SURF                                    
     36     (1,4,6)               0.0000000      SURF                                    
     37     (1,4,7)               0.0000000      SURF                                    
     38     (1,4,8)               0.0000000      SURF                                    
     39     (1,4,9)               0.0000000      SURF                                    
     40     (1,4,10)              0.0000000      SURF                                    
     41     (1,5,1)               0.0000000      SURF                                    
     42     (1,5,2)               0.0000000      SURF                                    
     43     (1,5,3)               0.0000000      SURF                                    
     44     (1,5,4)               0.0000000      SURF                                    
     45     (1,5,5)               0.0000000      SURF                                    
     46     (1,5,6)               0.0000000      SURF                                    
     47     (1,5,7)               0.0000000      SURF                                    
     48     (1,5,8)               0.0000000      SURF                                    
     49     (1,5,9)               0.0000000      SURF                                    
     50     (1,5,10)              0.0000000      SURF                                    
     51     (1,6,1)               0.0000000      SURF                                    
     52     (1,6,2)               0.0000000      SURF                                    
     53     (1,6,3)               0.0000000      SURF                                    
     54     (1,6,4)               0.0000000      SURF                                    
     55     (1,6,5)               0.0000000      SURF                                    
     56     (1,6,6)               0.0000000      SURF                                    
     57     (1,6,7)              -3.09621100E-07 SURF                                    
     58     (1,6,8)               0.0000000      SURF                                    
     59     (1,6,9)               0.0000000      SURF                                    
     60     (1,6,10)              0.0000000      SURF                                    
     61     (1,7,1)               0.0000000      SURF                                    
     62     (1,7,2)               0.0000000      SURF                                    
     63     (1,7,3)               0.0000000      SURF                                    
     64     (1,7,4)               0.0000000      SURF                                    
     65     (1,7,5)               0.0000000      SURF                                    
     66     (1,7,6)               0.0000000      SURF                                    
     67     (1,7,7)               0.0000000      SURF                                    
     68     (1,7,8)               0.0000000      SURF                                    
     69     (1,7,9)               0.0000000      SURF                                    
     70     (1,7,10)              0.0000000      SURF                                    
     71     (1,8,1)               0.0000000      SURF                                    
     72     (1,8,2)               0.0000000      SURF                                    
     73     (1,8,3)               0.0000000      SURF                                    
     74     (1,8,4)               0.0000000      SURF                                    
     75     (1,8,5)               0.0000000      SURF                                    
     76     (1,8,6)               0.0000000      SURF                                    
     77     (1,8,7)               0.0000000      SURF                                    
     78     (1,8,8)               0.0000000      SURF                                    
     79     (1,8,9)               0.0000000      SURF                                    
     80     (1,8,10)              0.0000000      SURF                                    
     81     (1,9,1)               0.0000000      SURF                                    
     82     (1,9,2)               0.0000000      SURF                                    
     83     (1,9,3)               0.0000000      SURF                                    
     84     (1,9,4)               0.0000000      SURF                                    
     85     (1,9,5)               0.0000000      SURF                                    
     86     (1,9,6)               0.0000000      SURF                                    
     87     (1,9,7)               0.0000000      SURF                                    
     88     (1,9,8)               0.0000000      SURF                                    
     89     (1,9,9)               0.0000000      SURF                                    
     90     (1,9,10)              0.0000000      SURF                                    
     91     (1,10,1)              0.0000000      SURF                                    
     92     (1,10,2)              0.0000000      SURF                                    
     93     (1,10,3)              0.0000000      SURF                                    
     94     (1,10,4)              0.0000000      SURF                                    
     95     (1,10,5)              0.0000000      SURF                                    
     96     (1,10,6)              0.0000000      SURF                                    
     97     (1,10,7)              0.0000000      SURF                                    
     98     (1,10,8)              0.0000000      SURF                                    
     99     (1,10,9)              0.0000000      SURF                                    
    100     (1,10,10)             0.0000000      SURF                                    
    101     (1,11,1)              0.0000000      SURF                                    
    102     (1,11,2)              0.0000000      SURF                                    
    103     (1,11,3)              0.0000000      SURF                                    
    104     (1,11,4)              0.0000000      SURF                                    
    105     (1,11,5)              0.0000000      SURF                                    
    106     (1,11,6)              0.0000000      SURF                                    
    107     (1,11,7)              0.0000000      SURF                                    
    108     (1,11,8)              0.0000000      SURF                                    
    109     (1,11,9)              0.0000000      SURF                                    
    110     (1,11,10)             0.0000000      SURF                                    
    111     (1,12,1)              0.0000000      SURF                                    
    112     (1,12,2)              0.0000000      SURF                                    
    113     (1,12,3)              0.0000000      SURF                                    
    114     (1,12,4)              0.0000000      SURF                                    
    115     (1,12,5)              0.0000000      SURF                                    
    116     (1,12,6)              0.0000000      SURF                                    
    117     (1,12,7)              0.0000000      SURF                                    
    118     (1,12,8)              0.0000000      SURF                                    
    119     (1,12,9)              0.0000000      SURF                                    
    120     (1,12,10)             0.0000000      SURF                                    
    121     (1,13,1)              0.0000000      SURF                                    
    122     (1,13,2)              0.0000000      SURF                                    
    123     (1,13,3)              0.0000000      SURF                                    
    124     (1,13,4)              0.0000000      SURF                                    
    125     (1,13,5)              0.0000000      SURF                                    
    126     (1,13,6)              0.0000000      SURF                                    
    127     (1,13,7)              0.0000000      SURF                                    
    128     (1,13,8)              0.0000000      SURF                                    
    129     (1,13,9)              0.0000000      SURF                                    
    130     (1,13,10)             0.0000000      SURF                                    
    131     (1,14,1)              0.0000000      SURF                                    
    132     (1,14,2)              0.0000000      SURF                                    
    133     (1,14,3)              0.0000000      SURF                                    
    134     (1,14,4)              0.0000000      SURF                                    
    135     (1,14,5)              0.0000000      SURF                                    
    136     (1,14,6)              0.0000000      SURF                                    
    137     (1,14,7)              0.0000000      SURF                                    
    138     (1,14,8)              0.0000000      SURF                                    
    139     (1,14,9)              0.0000000      SURF                                    
    140     (1,14,10)             0.0000000      SURF                                    
    141     (1,15,1)              0.0000000      SURF                                    
    142     (1,15,2)              0.0000000      SURF                                    
    143     (1,15,3)              0.0000000      SURF                                    
    144     (1,15,4)              0.0000000      SURF                                    
    145     (1,15,5)              0.0000000      SURF                                    
    146     (1,15,6)              0.0000000      SURF                                    
    147     (1,15,7)              0.0000000      SURF                                    
    148     (1,15,8)              0.0000000      SURF                                    
    149     (1,15,9)              0.0000000      SURF                                    
    150     (1,15,10)             0.0000000      SURF                                    
 ----------------------------------------------------------------------------------------




 API PACKAGE (MAR) FLOW RATES   PERIOD      2   STEP       89
 -----------------------------------------------
   NUMBER   CELLID                    RATE      
 -----------------------------------------------
     1      (1,6,5)               35.861924     
     2      (1,6,6)               35.861924     
     3      (1,6,7)               35.861924     
     4      (1,10,5)              32.430102     
     5      (1,10,6)              32.430102     
     6      (1,10,7)              32.430102     
 -----------------------------------------------



1
  HEAD IN LAYER   1 AT END OF TIME STEP  89 IN STRESS PERIOD    2
  ---------------------------------------------------------------------------

            1           2           3           4           5           6           7           8           9          10
 ........................................................................................................................
   1   2.1783E-02  2.9145E-02  4.2881E-02  6.0040E-02  7.4962E-02  8.1092E-02  7.6057E-02  6.2846E-02  4.8716E-02  4.0030E-02
   2   2.7648E-02  3.8219E-02  5.8740E-02  8.5885E-02  0.1108      0.1209      0.1122      8.9334E-02  6.6074E-02  5.2341E-02
   3   3.6457E-02  5.3070E-02  8.7549E-02  0.1378      0.1889      0.2083      0.1906      0.1422      9.7046E-02  7.2241E-02
   4   4.1267E-02  6.4646E-02  0.1187      0.2112      0.3239      0.3593      0.3256      0.2158      0.1291      8.7030E-02
   5   3.1132E-02  5.5184E-02  0.1234      0.2798      0.5523      0.5972      0.5535      0.2831      0.1309      7.2554E-02
   6  -3.1937E-03  1.1819E-03  3.9180E-02  0.2310      0.9999      0.9272       1.000      0.2308      3.8040E-02 -1.2277E-03
   7  -5.3704E-02 -0.1002     -0.2170     -0.4626     -0.9704      -2.167     -0.9716     -0.4671     -0.2301     -0.1341    
   8  -8.0366E-02 -0.1584     -0.3827     -0.9800      -2.732      -9.252      -2.734     -0.9869     -0.4022     -0.2096    
   9  -5.6131E-02 -0.1041     -0.2258     -0.4850      -1.022      -2.229      -1.023     -0.4898     -0.2395     -0.1391    
  10  -7.3924E-03 -5.5234E-03  2.3481E-02  0.1862      0.8701      0.7790      0.8699      0.1855      2.1315E-02 -9.9097E-03
  11   2.6386E-02  4.8490E-02  0.1108      0.2527      0.4984      0.5349      0.4993      0.2553      0.1172      6.3747E-02
  12   3.6800E-02  5.8981E-02  0.1100      0.1966      0.3010      0.3331      0.3024      0.2006      0.1193      7.9459E-02
  13   3.2641E-02  4.8507E-02  8.1428E-02  0.1293      0.1776      0.1958      0.1790      0.1330      8.9915E-02  6.6078E-02
  14   2.4511E-02  3.4550E-02  5.4097E-02  7.9996E-02  0.1038      0.1133      0.1049      8.2972E-02  6.0590E-02  4.7357E-02
  15   1.9070E-02  2.5989E-02  3.8954E-02  5.5219E-02  6.9390E-02  7.5182E-02  7.0307E-02  5.7616E-02  4.4059E-02  3.5732E-02

 HEAD WILL BE SAVED ON UNIT 1100 AT END OF TIME STEP   89, STRESS PERIOD    2


  VOLUME BUDGET FOR ENTIRE MODEL AT END OF TIME STEP   89, STRESS PERIOD   2
  ---------------------------------------------------------------------------------------------------

     CUMULATIVE VOLUME      L**3       RATES FOR THIS TIME STEP      L**3/T          PACKAGE NAME    
     ------------------                 ------------------------                     ----------------

           IN:                                      IN:
           ---                                      ---
              STO-SS =          25.4801                STO-SS =       7.7525E-03     STORAGE                          
              STO-SY =       62587.1203                STO-SY =          16.0530     STORAGE                          
                 WEL =           0.0000                   WEL =           0.0000     WEL-1                            
                 DRN =           0.0000                   DRN =           0.0000     DRN-0                            
                 API =      182123.7144                   API =         204.8761     MAR                              
                 CHD =       2.0279E-08                   CHD =           0.0000     CHD_0                            

            TOTAL IN =      244736.3149              TOTAL IN =         220.9368

          OUT:                                     OUT:
          ----                                     ----
              STO-SS =          22.0150                STO-SS =       8.1225E-03     STORAGE                          
              STO-SY =       43021.7789                STO-SY =          16.0526     STORAGE                          
                 WEL =      201692.5207                   WEL =         204.8761     WEL-1                            
                 DRN =       2.9460E-04                   DRN =       3.0962E-07     DRN-0                            
                 API =           0.0000                   API =           0.0000     MAR                              
                 CHD =       2.0705E-08                   CHD =           0.0000     CHD_0                            

           TOTAL OUT =      244736.3149             TOTAL OUT =         220.9368

            IN - OUT =      -9.4599E-07              IN - OUT =       7.3774E-10

 PERCENT DISCREPANCY =          -0.00     PERCENT DISCREPANCY =           0.00




         TIME SUMMARY AT END OF TIME STEP   89 IN STRESS PERIOD    2
                    SECONDS     MINUTES      HOURS       DAYS        YEARS
                    -----------------------------------------------------------
   TIME STEP LENGTH 8.64000E+05  14400.      240.00      10.000     2.73785E-02
 STRESS PERIOD TIME 7.68960E+07 1.28160E+06  21360.      890.00      2.4367    
         TOTAL TIME 7.69824E+07 1.28304E+06  21384.      891.00      2.4394    


end timestep


start timestep kper="2" kstp="90" mode="normal"

 UBDSV1 SAVING           STO-SS ON UNIT   1099 AT TIME STEP     90, STRESS PERIOD      2
 UBDSV1 SAVING           STO-SY ON UNIT   1099 AT TIME STEP     90, STRESS PERIOD      2
 UBDSV1 SAVING     FLOW-JA-FACE ON UNIT   1099 AT TIME STEP     90, STRESS PERIOD      2
 UBDSV06 SAVING       DATA-SPDIS IN MODEL GWF              PACKAGE NPF             CONNECTED TO MODEL GWF              PACKAGE NPF              ON UNIT   1099 AT TIME STEP     90, STRESS PERIOD      2
 UBDSV06 SAVING              WEL IN MODEL GWF              PACKAGE GWF             CONNECTED TO MODEL GWF              PACKAGE WEL-1            ON UNIT   1099 AT TIME STEP     90, STRESS PERIOD      2
 UBDSV06 SAVING              DRN IN MODEL GWF              PACKAGE GWF             CONNECTED TO MODEL GWF              PACKAGE DRN-0            ON UNIT   1099 AT TIME STEP     90, STRESS PERIOD      2
 UBDSV06 SAVING              API IN MODEL GWF              PACKAGE GWF             CONNECTED TO MODEL GWF              PACKAGE MAR              ON UNIT   1099 AT TIME STEP     90, STRESS PERIOD      2
 UBDSV06 SAVING              CHD IN MODEL GWF              PACKAGE GWF             CONNECTED TO MODEL GWF              PACKAGE CHD_0            ON UNIT   1099 AT TIME STEP     90, STRESS PERIOD      2

    CALCULATED INTERCELL FLOW FOR PERIOD 2 STEP 90
(1,1,1): (1,1,2) 7.495451E-02 (1,2,1) 5.893417E-02
(1,1,2): (1,1,1) -7.495451E-02 (1,1,3) 0.139895 (1,2,2) 9.122281E-02
(1,1,3): (1,1,2) -0.139895 (1,1,4) 0.174833 (1,2,3) 0.159710
(1,1,4): (1,1,3) -0.174833 (1,1,5) 0.152146 (1,2,4) 0.260955
(1,1,5): (1,1,4) -0.152146 (1,1,6) 6.260201E-02 (1,2,5) 0.363140
(1,1,6): (1,1,5) -6.260201E-02 (1,1,7) -5.112948E-02 (1,2,6) 0.403237
(1,1,7): (1,1,6) 5.112948E-02 (1,1,8) -0.134344 (1,2,7) 0.365552
(1,1,8): (1,1,7) 0.134344 (1,1,9) -0.143610 (1,2,8) 0.267549
(1,1,9): (1,1,8) 0.143610 (1,1,10) -8.821147E-02 (1,2,9) 0.174935
(1,1,10): (1,1,9) 8.821147E-02 (1,2,10) 0.123908
(1,2,1): (1,1,1) -5.893417E-02 (1,2,2) 0.107248 (1,3,1) 8.791801E-02
(1,2,2): (1,1,2) -9.122281E-02 (1,2,1) -0.107248 (1,2,3) 0.208415 (1,3,2) 0.148728
(1,2,3): (1,1,3) -0.159710 (1,2,2) -0.208415 (1,2,4) 0.276093 (1,3,3) 0.289967
(1,2,4): (1,1,4) -0.260955 (1,2,3) -0.276093 (1,2,5) 0.254223 (1,3,4) 0.526085
(1,2,5): (1,1,5) -0.363140 (1,2,4) -0.254223 (1,2,6) 0.102582 (1,3,5) 0.795435
(1,2,6): (1,1,6) -0.403237 (1,2,5) -0.102582 (1,2,7) -8.869939E-02 (1,3,6) 0.892128
(1,2,7): (1,1,7) -0.365552 (1,2,6) 8.869939E-02 (1,2,8) -0.232220 (1,3,7) 0.798669
(1,2,8): (1,1,8) -0.267549 (1,2,7) 0.232220 (1,2,9) -0.236195 (1,3,8) 0.535135
(1,2,9): (1,1,9) -0.174935 (1,2,8) 0.236195 (1,2,10) -0.139221 (1,3,9) 0.311922
(1,2,10): (1,1,10) -0.123908 (1,2,9) 0.139221 (1,3,10) 0.199589
(1,3,1): (1,2,1) -8.791801E-02 (1,3,2) 0.168070 (1,4,1) 4.617244E-02
(1,3,2): (1,2,2) -0.148728 (1,3,1) -0.168070 (1,3,3) 0.349737 (1,4,2) 0.114055
(1,3,3): (1,2,3) -0.289967 (1,3,2) -0.349737 (1,3,4) 0.512178 (1,4,3) 0.312225
(1,3,4): (1,2,4) -0.526085 (1,3,3) -0.512178 (1,3,5) 0.522873 (1,4,4) 0.746146
(1,3,5): (1,2,5) -0.795435 (1,3,4) -0.522873 (1,3,6) 0.198642 (1,4,5) 1.39046
(1,3,6): (1,2,6) -0.892128 (1,3,5) -0.198642 (1,3,7) -0.181531 (1,4,6) 1.56156
(1,3,7): (1,2,7) -0.798669 (1,3,6) 0.181531 (1,3,8) -0.494991 (1,4,7) 1.39133
(1,3,8): (1,2,8) -0.535135 (1,3,7) 0.494991 (1,3,9) -0.459245 (1,4,8) 0.748981
(1,3,9): (1,2,9) -0.311922 (1,3,8) 0.459245 (1,3,10) -0.251487 (1,4,9) 0.321638
(1,3,10): (1,2,10) -0.199589 (1,3,9) 0.251487 (1,4,10) 0.145730
(1,4,1): (1,3,1) -4.617244E-02 (1,4,2) 0.236034 (1,5,1) -0.106087
(1,4,2): (1,3,2) -0.114055 (1,4,1) -0.236034 (1,4,3) 0.548363 (1,5,2) -0.100174
(1,4,3): (1,3,3) -0.312225 (1,4,2) -0.548363 (1,4,4) 0.946930 (1,5,3) 4.211930E-02
(1,4,4): (1,3,4) -0.746146 (1,4,3) -0.946930 (1,4,5) 1.16584 (1,5,4) 0.699669
(1,4,5): (1,3,5) -1.39046 (1,4,4) -1.16584 (1,4,6) 0.367894 (1,5,5) 2.40451
(1,4,6): (1,3,6) -1.56156 (1,4,5) -0.367894 (1,4,7) -0.349892 (1,5,6) 2.51629
(1,4,7): (1,3,7) -1.39133 (1,4,6) 0.349892 (1,4,8) -1.13582 (1,5,7) 2.39920
(1,4,8): (1,3,8) -0.748981 (1,4,7) 1.13582 (1,4,9) -0.887150 (1,5,8) 0.685309
(1,4,9): (1,3,9) -0.321638 (1,4,8) 0.887150 (1,4,10) -0.427576 (1,5,9) 1.115536E-02
(1,4,10): (1,3,10) -0.145730 (1,4,9) 0.427576 (1,5,10) -0.152892
(1,5,1): (1,4,1) 0.106087 (1,5,2) 0.241955 (1,6,1) -0.350086
(1,5,2): (1,4,2) 0.100174 (1,5,1) -0.241955 (1,5,3) 0.691463 (1,6,2) -0.549631
(1,5,3): (1,4,3) -4.211930E-02 (1,5,2) -0.691463 (1,5,4) 1.61014 (1,6,3) -0.860375
(1,5,4): (1,4,4) -0.699669 (1,5,3) -1.61014 (1,5,5) 2.87785 (1,6,4) -0.510029
(1,5,5): (1,4,5) -2.40451 (1,5,4) -2.87785 (1,5,6) 0.477841 (1,6,5) 4.91855
(1,5,6): (1,4,6) -2.51629 (1,5,5) -0.477841 (1,5,7) -0.465028 (1,6,6) 3.60079
(1,5,7): (1,4,7) -2.39920 (1,5,6) 0.465028 (1,5,8) -2.85667 (1,6,7) 4.90566
(1,5,8): (1,4,8) -0.685309 (1,5,7) 2.85667 (1,5,9) -1.56692 (1,6,8) -0.546217
(1,5,9): (1,4,9) -1.115536E-02 (1,5,8) 1.56692 (1,5,10) -0.592326 (1,6,9) -0.950252
(1,5,10): (1,4,10) 0.152892 (1,5,9) 0.592326 (1,6,10) -0.752340
(1,6,1): (1,5,1) 0.350086 (1,6,2) 4.301447E-02 (1,7,1) -0.510111
(1,6,2): (1,5,2) 0.549631 (1,6,1) -4.301447E-02 (1,6,3) 0.381225 (1,7,2) -1.01974
(1,6,3): (1,5,3) 0.860375 (1,6,2) -0.381225 (1,6,4) 1.96427 (1,7,3) -2.57965
(1,6,4): (1,5,4) 0.510029 (1,6,3) -1.96427 (1,6,5) 8.46408 (1,7,4) -7.10460
(1,6,5): (1,5,5) -4.91855 (1,6,4) -8.46408 (1,6,6) -0.797891 (1,7,5) -21.6836
(1,6,6): (1,5,6) -3.60079 (1,6,5) 0.797891 (1,6,7) 0.798285 (1,7,6) -33.8159
(1,6,7): (1,5,7) -4.90566 (1,6,6) -0.798285 (1,6,8) -8.46732 (1,7,7) -21.6985
(1,6,8): (1,5,8) 0.546217 (1,6,7) 8.46732 (1,6,9) -1.97500 (1,7,8) -7.14917
(1,6,9): (1,5,9) 0.950252 (1,6,8) 1.97500 (1,6,10) -0.395089 (1,7,9) -2.70043
(1,6,10): (1,5,10) 0.752340 (1,6,9) 0.395089 (1,7,10) -1.33677
(1,7,1): (1,6,1) 0.510111 (1,7,2) -0.463812 (1,8,1) -0.267418
(1,7,2): (1,6,2) 1.01974 (1,7,1) 0.463812 (1,7,3) -1.15844 (1,8,2) -0.579765
(1,7,3): (1,6,3) 2.57965 (1,7,2) 1.15844 (1,7,4) -2.40113 (1,8,3) -1.62506
(1,7,4): (1,6,4) 7.10460 (1,7,3) 2.40113 (1,7,5) -4.83792 (1,8,4) -4.94046
(1,7,5): (1,6,5) 21.6836 (1,7,4) 4.83792 (1,7,6) -10.7972 (1,8,5) -15.9079
(1,7,6): (1,6,6) 33.8159 (1,7,5) 10.7972 (1,7,7) 10.7839 (1,8,6) -55.4934
(1,7,7): (1,6,7) 21.6985 (1,7,6) -10.7839 (1,7,8) 4.80387 (1,8,7) -15.9138
(1,7,8): (1,6,8) 7.14917 (1,7,7) -4.80387 (1,7,9) 2.31242 (1,8,8) -4.96151
(1,7,9): (1,6,9) 2.70043 (1,7,8) -2.31242 (1,7,10) 0.946699 (1,8,9) -1.68560
(1,7,10): (1,6,10) 1.33677 (1,7,9) -0.946699 (1,8,10) -0.748796
(1,8,1): (1,7,1) 0.267418 (1,8,2) -0.776785 (1,9,1) 0.242789
(1,8,2): (1,7,2) 0.579765 (1,8,1) 0.776785 (1,8,3) -2.21003 (1,9,2) 0.539843
(1,8,3): (1,7,3) 1.62506 (1,8,2) 2.21003 (1,8,4) -5.74444 (1,9,3) 1.53427
(1,8,4): (1,7,4) 4.94046 (1,8,3) 5.74444 (1,8,5) -15.7920 (1,9,4) 4.70711
(1,8,5): (1,7,5) 15.9079 (1,8,4) 15.7920 (1,8,6) -47.3698 (1,9,5) 15.3375
(1,8,6): (1,7,6) 55.4934 (1,8,5) 47.3698 (1,8,7) 47.3393 (1,9,6) 54.5390
(1,8,7): (1,7,7) 15.9138 (1,8,6) -47.3393 (1,8,8) 15.7356 (1,9,7) 15.3419
(1,8,8): (1,7,8) 4.96151 (1,8,7) -15.7356 (1,8,9) 5.61067 (1,9,8) 4.72489
(1,8,9): (1,7,9) 1.68560 (1,8,8) -5.61067 (1,8,10) 1.88544 (1,9,9) 1.58873
(1,8,10): (1,7,10) 0.748796 (1,8,9) -1.88544 (1,9,10) 0.697062
(1,9,1): (1,8,1) -0.242789 (1,9,2) -0.479014 (1,10,1) 0.491939
(1,9,2): (1,8,2) -0.539843 (1,9,1) 0.479014 (1,9,3) -1.20868 (1,10,2) 0.990186
(1,9,3): (1,8,3) -1.53427 (1,9,2) 1.20868 (1,9,4) -2.53694 (1,10,3) 2.50410
(1,9,4): (1,8,4) -4.70711 (1,9,3) 2.53694 (1,9,5) -5.11013 (1,10,4) 6.83915
(1,9,5): (1,8,5) -15.3375 (1,9,4) 5.11013 (1,9,6) -10.8337 (1,10,5) 20.5556
(1,9,6): (1,8,6) -54.5390 (1,9,5) 10.8337 (1,9,7) 10.8189 (1,10,6) 32.4055
(1,9,7): (1,8,7) -15.3419 (1,9,6) -10.8189 (1,9,8) 5.07412 (1,10,7) 20.5691
(1,9,8): (1,8,8) -4.72489 (1,9,7) -5.07412 (1,9,9) 2.44518 (1,10,8) 6.88115
(1,9,9): (1,8,9) -1.58873 (1,9,8) -2.44518 (1,9,10) 0.991018 (1,10,9) 2.62023
(1,9,10): (1,8,10) -0.697062 (1,9,9) -0.991018 (1,10,10) 1.29848
(1,10,1): (1,9,1) -0.491939 (1,10,2) 1.669796E-02 (1,11,1) 0.344511
(1,10,2): (1,9,2) -0.990186 (1,10,1) -1.669796E-02 (1,10,3) 0.286795 (1,11,2) 0.549717
(1,10,3): (1,9,3) -2.50410 (1,10,2) -0.286795 (1,10,4) 1.65067 (1,11,3) 0.892155
(1,10,4): (1,9,4) -6.83915 (1,10,3) -1.65067 (1,10,5) 7.42023 (1,11,4) 0.694412
(1,10,5): (1,9,5) -20.5556 (1,10,4) -7.42023 (1,10,6) -0.992303 (1,11,5) -4.01961
(1,10,6): (1,9,6) -32.4055 (1,10,5) 0.992303 (1,10,7) 0.990307 (1,11,6) -2.60993
(1,10,7): (1,9,7) -20.5691 (1,10,6) -0.990307 (1,10,8) -7.42668 (1,11,7) -4.00740
(1,10,8): (1,9,8) -6.88115 (1,10,7) 7.42668 (1,10,9) -1.66642 (1,11,8) 0.729362
(1,10,9): (1,9,9) -2.62023 (1,10,8) 1.66642 (1,10,10) -0.310517 (1,11,9) 0.980166
(1,10,10): (1,9,10) -1.29848 (1,10,9) 0.310517 (1,11,10) 0.750855
(1,11,1): (1,10,1) -0.344511 (1,11,2) 0.221238 (1,12,1) 0.108996
(1,11,2): (1,10,2) -0.549717 (1,11,1) -0.221238 (1,11,3) 0.628358 (1,12,2) 0.111104
(1,11,3): (1,10,3) -0.892155 (1,11,2) -0.628358 (1,11,4) 1.45142 (1,12,3) -4.837332E-04
(1,11,4): (1,10,4) -0.694412 (1,11,3) -1.45142 (1,11,5) 2.57386 (1,12,4) -0.564288
(1,11,5): (1,10,5) 4.01961 (1,11,4) -2.57386 (1,11,6) 0.383132 (1,12,5) -2.05770
(1,11,6): (1,10,6) 2.60993 (1,11,5) -0.383132 (1,11,7) -0.373278 (1,12,6) -2.10912
(1,11,7): (1,10,7) 4.00740 (1,11,6) 0.373278 (1,11,8) -2.55657 (1,12,7) -2.05241
(1,11,8): (1,10,8) -0.729362 (1,11,7) 2.55657 (1,11,9) -1.41390 (1,12,8) -0.549913
(1,11,9): (1,10,9) -0.980166 (1,11,8) 1.41390 (1,11,10) -0.538857 (1,12,9) 3.084560E-02
(1,11,10): (1,10,10) -0.750855 (1,11,9) 0.538857 (1,12,10) 0.166047
(1,12,1): (1,11,1) -0.108996 (1,12,2) 0.223349 (1,13,1) -3.954301E-02
(1,12,2): (1,11,2) -0.111104 (1,12,1) -0.223349 (1,12,3) 0.516203 (1,13,2) -0.102515
(1,12,3): (1,11,3) 4.837332E-04 (1,12,2) -0.516203 (1,12,4) 0.882854 (1,13,3) -0.285002
(1,12,4): (1,11,4) 0.564288 (1,12,3) -0.882854 (1,12,5) 1.07351 (1,13,4) -0.680909
(1,12,5): (1,11,5) 2.05770 (1,12,4) -1.07351 (1,12,6) 0.332401 (1,13,5) -1.26268
(1,12,6): (1,11,6) 2.10912 (1,12,5) -0.332401 (1,12,7) -0.317351 (1,13,6) -1.41067
(1,12,7): (1,11,7) 2.05241 (1,12,6) 0.317351 (1,12,8) -1.04725 (1,13,7) -1.26319
(1,12,8): (1,11,8) 0.549913 (1,12,7) 1.04725 (1,12,9) -0.828374 (1,13,8) -0.682932
(1,12,9): (1,11,9) -3.084560E-02 (1,12,8) 0.828374 (1,12,10) -0.403161 (1,13,9) -0.292863
(1,12,10): (1,11,10) -0.166047 (1,12,9) 0.403161 (1,13,10) -0.130938
(1,13,1): (1,12,1) 3.954301E-02 (1,13,2) 0.160302 (1,14,1) -8.109582E-02
(1,13,2): (1,12,2) 0.102515 (1,13,1) -0.160302 (1,13,3) 0.333305 (1,14,2) -0.139546
(1,13,3): (1,12,3) 0.285002 (1,13,2) -0.333305 (1,13,4) 0.486183 (1,14,3) -0.274385
(1,13,4): (1,12,4) 0.680909 (1,13,3) -0.486183 (1,13,5) 0.492763 (1,14,4) -0.497498
(1,13,5): (1,12,5) 1.26268 (1,13,4) -0.492763 (1,13,6) 0.185868 (1,14,5) -0.749036
(1,13,6): (1,12,6) 1.41067 (1,13,5) -0.185868 (1,13,7) -0.171338 (1,14,6) -0.838387
(1,13,7): (1,12,7) 1.26319 (1,13,6) 0.171338 (1,13,8) -0.468163 (1,14,7) -0.751821
(1,13,8): (1,12,8) 0.682932 (1,13,7) 0.468163 (1,13,9) -0.437763 (1,14,8) -0.505555
(1,13,9): (1,12,9) 0.292863 (1,13,8) 0.437763 (1,13,10) -0.241063 (1,14,9) -0.294590
(1,13,10): (1,12,10) 0.130938 (1,13,9) 0.241063 (1,14,10) -0.187455
(1,14,1): (1,13,1) 8.109582E-02 (1,14,2) 0.101840 (1,15,1) -5.469532E-02
(1,14,2): (1,13,2) 0.139546 (1,14,1) -0.101840 (1,14,3) 0.198387 (1,15,2) -8.603852E-02
(1,14,3): (1,13,3) 0.274385 (1,14,2) -0.198387 (1,14,4) 0.263095 (1,15,3) -0.152308
(1,14,4): (1,13,4) 0.497498 (1,14,3) -0.263095 (1,14,5) 0.241841 (1,15,4) -0.249688
(1,14,5): (1,13,5) 0.749036 (1,14,4) -0.241841 (1,14,6) 9.706932E-02 (1,15,5) -0.347222
(1,14,6): (1,13,6) 0.838387 (1,14,5) -9.706932E-02 (1,14,7) -8.531954E-02 (1,15,6) -0.385295
(1,14,7): (1,13,7) 0.751821 (1,14,6) 8.531954E-02 (1,14,8) -0.222565 (1,15,7) -0.349342
(1,14,8): (1,13,8) 0.505555 (1,14,7) 0.222565 (1,14,9) -0.226936 (1,15,8) -0.255635
(1,14,9): (1,13,9) 0.294590 (1,14,8) 0.226936 (1,14,10) -0.133983 (1,15,9) -0.166414
(1,14,10): (1,13,10) 0.187455 (1,14,9) 0.133983 (1,15,10) -0.116963
(1,15,1): (1,14,1) 5.469532E-02 (1,15,2) 7.049234E-02
(1,15,2): (1,14,2) 8.603852E-02 (1,15,1) -7.049234E-02 (1,15,3) 0.132087
(1,15,3): (1,14,3) 0.152308 (1,15,2) -0.132087 (1,15,4) 0.165702
(1,15,4): (1,14,4) 0.249688 (1,15,3) -0.165702 (1,15,5) 0.144407
(1,15,5): (1,14,5) 0.347222 (1,15,4) -0.144407 (1,15,6) 5.910248E-02
(1,15,6): (1,14,6) 0.385295 (1,15,5) -5.910248E-02 (1,15,7) -4.947057E-02
(1,15,7): (1,14,7) 0.349342 (1,15,6) 4.947057E-02 (1,15,8) -0.128974
(1,15,8): (1,14,8) 0.255635 (1,15,7) 0.128974 (1,15,9) -0.137740
(1,15,9): (1,14,9) 0.166414 (1,15,8) 0.137740 (1,15,10) -8.454826E-02
(1,15,10): (1,14,10) 0.116963 (1,15,9) 8.454826E-02

 WEL PACKAGE (WEL-1) FLOW RATES   PERIOD      2   STEP       90
 ----------------------------------------------------------------------------------------
   NUMBER   CELLID                    RATE       NAME                                    
 ----------------------------------------------------------------------------------------
     1      (1,8,6)              -204.79321      WEL                                     
 ----------------------------------------------------------------------------------------




 DRN PACKAGE (DRN-0) FLOW RATES   PERIOD      2   STEP       90
 ----------------------------------------------------------------------------------------
   NUMBER   CELLID                    RATE       NAME                                    
 ----------------------------------------------------------------------------------------
     1      (1,1,1)               0.0000000      SURF                                    
     2      (1,1,2)               0.0000000      SURF                                    
     3      (1,1,3)               0.0000000      SURF                                    
     4      (1,1,4)               0.0000000      SURF                                    
     5      (1,1,5)               0.0000000      SURF                                    
     6      (1,1,6)               0.0000000      SURF                                    
     7      (1,1,7)               0.0000000      SURF                                    
     8      (1,1,8)               0.0000000      SURF                                    
     9      (1,1,9)               0.0000000      SURF                                    
     10     (1,1,10)              0.0000000      SURF                                    
     11     (1,2,1)               0.0000000      SURF                                    
     12     (1,2,2)               0.0000000      SURF                                    
     13     (1,2,3)               0.0000000      SURF                                    
     14     (1,2,4)               0.0000000      SURF                                    
     15     (1,2,5)               0.0000000      SURF                                    
     16     (1,2,6)               0.0000000      SURF                                    
     17     (1,2,7)               0.0000000      SURF                                    
     18     (1,2,8)               0.0000000      SURF                                    
     19     (1,2,9)               0.0000000      SURF                                    
     20     (1,2,10)              0.0000000      SURF                                    
     21     (1,3,1)               0.0000000      SURF                                    
     22     (1,3,2)               0.0000000      SURF                                    
     23     (1,3,3)               0.0000000      SURF                                    
     24     (1,3,4)               0.0000000      SURF                                    
     25     (1,3,5)               0.0000000      SURF                                    
     26     (1,3,6)               0.0000000      SURF                                    
     27     (1,3,7)               0.0000000      SURF                                    
     28     (1,3,8)               0.0000000      SURF                                    
     29     (1,3,9)               0.0000000      SURF                                    
     30     (1,3,10)              0.0000000      SURF                                    
     31     (1,4,1)               0.0000000      SURF                                    
     32     (1,4,2)               0.0000000      SURF                                    
     33     (1,4,3)               0.0000000      SURF                                    
     34     (1,4,4)               0.0000000      SURF                                    
     35     (1,4,5)               0.0000000      SURF                                    
     36     (1,4,6)               0.0000000      SURF                                    
     37     (1,4,7)               0.0000000      SURF                                    
     38     (1,4,8)               0.0000000      SURF                                    
     39     (1,4,9)               0.0000000      SURF                                    
     40     (1,4,10)              0.0000000      SURF                                    
     41     (1,5,1)               0.0000000      SURF                                    
     42     (1,5,2)               0.0000000      SURF                                    
     43     (1,5,3)               0.0000000      SURF                                    
     44     (1,5,4)               0.0000000      SURF                                    
     45     (1,5,5)               0.0000000      SURF                                    
     46     (1,5,6)               0.0000000      SURF                                    
     47     (1,5,7)               0.0000000      SURF                                    
     48     (1,5,8)               0.0000000      SURF                                    
     49     (1,5,9)               0.0000000      SURF                                    
     50     (1,5,10)              0.0000000      SURF                                    
     51     (1,6,1)               0.0000000      SURF                                    
     52     (1,6,2)               0.0000000      SURF                                    
     53     (1,6,3)               0.0000000      SURF                                    
     54     (1,6,4)               0.0000000      SURF                                    
     55     (1,6,5)               0.0000000      SURF                                    
     56     (1,6,6)               0.0000000      SURF                                    
     57     (1,6,7)              -3.09330062E-07 SURF                                    
     58     (1,6,8)               0.0000000      SURF                                    
     59     (1,6,9)               0.0000000      SURF                                    
     60     (1,6,10)              0.0000000      SURF                                    
     61     (1,7,1)               0.0000000      SURF                                    
     62     (1,7,2)               0.0000000      SURF                                    
     63     (1,7,3)               0.0000000      SURF                                    
     64     (1,7,4)               0.0000000      SURF                                    
     65     (1,7,5)               0.0000000      SURF                                    
     66     (1,7,6)               0.0000000      SURF                                    
     67     (1,7,7)               0.0000000      SURF                                    
     68     (1,7,8)               0.0000000      SURF                                    
     69     (1,7,9)               0.0000000      SURF                                    
     70     (1,7,10)              0.0000000      SURF                                    
     71     (1,8,1)               0.0000000      SURF                                    
     72     (1,8,2)               0.0000000      SURF                                    
     73     (1,8,3)               0.0000000      SURF                                    
     74     (1,8,4)               0.0000000      SURF                                    
     75     (1,8,5)               0.0000000      SURF                                    
     76     (1,8,6)               0.0000000      SURF                                    
     77     (1,8,7)               0.0000000      SURF                                    
     78     (1,8,8)               0.0000000      SURF                                    
     79     (1,8,9)               0.0000000      SURF                                    
     80     (1,8,10)              0.0000000      SURF                                    
     81     (1,9,1)               0.0000000      SURF                                    
     82     (1,9,2)               0.0000000      SURF                                    
     83     (1,9,3)               0.0000000      SURF                                    
     84     (1,9,4)               0.0000000      SURF                                    
     85     (1,9,5)               0.0000000      SURF                                    
     86     (1,9,6)               0.0000000      SURF                                    
     87     (1,9,7)               0.0000000      SURF                                    
     88     (1,9,8)               0.0000000      SURF                                    
     89     (1,9,9)               0.0000000      SURF                                    
     90     (1,9,10)              0.0000000      SURF                                    
     91     (1,10,1)              0.0000000      SURF                                    
     92     (1,10,2)              0.0000000      SURF                                    
     93     (1,10,3)              0.0000000      SURF                                    
     94     (1,10,4)              0.0000000      SURF                                    
     95     (1,10,5)              0.0000000      SURF                                    
     96     (1,10,6)              0.0000000      SURF                                    
     97     (1,10,7)              0.0000000      SURF                                    
     98     (1,10,8)              0.0000000      SURF                                    
     99     (1,10,9)              0.0000000      SURF                                    
    100     (1,10,10)             0.0000000      SURF                                    
    101     (1,11,1)              0.0000000      SURF                                    
    102     (1,11,2)              0.0000000      SURF                                    
    103     (1,11,3)              0.0000000      SURF                                    
    104     (1,11,4)              0.0000000      SURF                                    
    105     (1,11,5)              0.0000000      SURF                                    
    106     (1,11,6)              0.0000000      SURF                                    
    107     (1,11,7)              0.0000000      SURF                                    
    108     (1,11,8)              0.0000000      SURF                                    
    109     (1,11,9)              0.0000000      SURF                                    
    110     (1,11,10)             0.0000000      SURF                                    
    111     (1,12,1)              0.0000000      SURF                                    
    112     (1,12,2)              0.0000000      SURF                                    
    113     (1,12,3)              0.0000000      SURF                                    
    114     (1,12,4)              0.0000000      SURF                                    
    115     (1,12,5)              0.0000000      SURF                                    
    116     (1,12,6)              0.0000000      SURF                                    
    117     (1,12,7)              0.0000000      SURF                                    
    118     (1,12,8)              0.0000000      SURF                                    
    119     (1,12,9)              0.0000000      SURF                                    
    120     (1,12,10)             0.0000000      SURF                                    
    121     (1,13,1)              0.0000000      SURF                                    
    122     (1,13,2)              0.0000000      SURF                                    
    123     (1,13,3)              0.0000000      SURF                                    
    124     (1,13,4)              0.0000000      SURF                                    
    125     (1,13,5)              0.0000000      SURF                                    
    126     (1,13,6)              0.0000000      SURF                                    
    127     (1,13,7)              0.0000000      SURF                                    
    128     (1,13,8)              0.0000000      SURF                                    
    129     (1,13,9)              0.0000000      SURF                                    
    130     (1,13,10)             0.0000000      SURF                                    
    131     (1,14,1)              0.0000000      SURF                                    
    132     (1,14,2)              0.0000000      SURF                                    
    133     (1,14,3)              0.0000000      SURF                                    
    134     (1,14,4)              0.0000000      SURF                                    
    135     (1,14,5)              0.0000000      SURF                                    
    136     (1,14,6)              0.0000000      SURF                                    
    137     (1,14,7)              0.0000000      SURF                                    
    138     (1,14,8)              0.0000000      SURF                                    
    139     (1,14,9)              0.0000000      SURF                                    
    140     (1,14,10)             0.0000000      SURF                                    
    141     (1,15,1)              0.0000000      SURF                                    
    142     (1,15,2)              0.0000000      SURF                                    
    143     (1,15,3)              0.0000000      SURF                                    
    144     (1,15,4)              0.0000000      SURF                                    
    145     (1,15,5)              0.0000000      SURF                                    
    146     (1,15,6)              0.0000000      SURF                                    
    147     (1,15,7)              0.0000000      SURF                                    
    148     (1,15,8)              0.0000000      SURF                                    
    149     (1,15,9)              0.0000000      SURF                                    
    150     (1,15,10)             0.0000000      SURF                                    
 ----------------------------------------------------------------------------------------




 API PACKAGE (MAR) FLOW RATES   PERIOD      2   STEP       90
 -----------------------------------------------
   NUMBER   CELLID                    RATE      
 -----------------------------------------------
     1      (1,6,5)               35.869730     
     2      (1,6,6)               35.869730     
     3      (1,6,7)               35.869730     
     4      (1,10,5)              32.394673     
     5      (1,10,6)              32.394673     
     6      (1,10,7)              32.394673     
 -----------------------------------------------



1
  HEAD IN LAYER   1 AT END OF TIME STEP  90 IN STRESS PERIOD    2
  ---------------------------------------------------------------------------

            1           2           3           4           5           6           7           8           9          10
 ........................................................................................................................
   1   2.2452E-02  2.9925E-02  4.3853E-02  6.1230E-02  7.6330E-02  8.2539E-02  7.7468E-02  6.4136E-02  4.9867E-02  4.1090E-02
   2   2.8329E-02  3.9012E-02  5.9730E-02  8.7100E-02  0.1122      0.1224      0.1136      9.0651E-02  6.7244E-02  5.3415E-02
   3   3.7088E-02  5.3805E-02  8.8472E-02  0.1390      0.1903      0.2098      0.1920      0.1434      9.8133E-02  7.3228E-02
   4   4.1686E-02  6.5137E-02  0.1193      0.2121      0.3250      0.3605      0.3267      0.2167      0.1299      8.7675E-02
   5   3.1121E-02  5.5184E-02  0.1235      0.2801      0.5528      0.5979      0.5540      0.2834      0.1310      7.2518E-02
   6  -3.7785E-03  5.2275E-04  3.8499E-02  0.2305       1.000      0.9274       1.000      0.2302      3.7189E-02 -2.1739E-03
   7  -5.4809E-02 -0.1014     -0.2185     -0.4640     -0.9713      -2.167     -0.9726     -0.4686     -0.2319     -0.1359    
   8  -8.1698E-02 -0.1600     -0.3846     -0.9820      -2.733      -9.252      -2.735     -0.9891     -0.4044     -0.2118    
   9  -5.7279E-02 -0.1055     -0.2276     -0.4872      -1.024      -2.231      -1.026     -0.4922     -0.2416     -0.1411    
  10  -8.0457E-03 -6.3749E-03  2.2241E-02  0.1843      0.8671      0.7758      0.8670      0.1835      1.9895E-02 -1.1095E-02
  11   2.6315E-02  4.8332E-02  0.1105      0.2521      0.4972      0.5336      0.4982      0.2547      0.1168      6.3517E-02
  12   3.7174E-02  5.9377E-02  0.1104      0.1970      0.3012      0.3334      0.3027      0.2010      0.1198      7.9990E-02
  13   3.3234E-02  4.9186E-02  8.2245E-02  0.1302      0.1786      0.1969      0.1801      0.1341      9.0889E-02  6.7000E-02
  14   2.5152E-02  3.5300E-02  5.5030E-02  8.1128E-02  0.1051      0.1147      0.1062      8.4200E-02  6.1695E-02  4.8379E-02
  15   1.9696E-02  2.6726E-02  3.9883E-02  5.6360E-02  7.0699E-02  7.6565E-02  7.1655E-02  5.8850E-02  4.5156E-02  3.6739E-02

 HEAD WILL BE SAVED ON UNIT 1100 AT END OF TIME STEP   90, STRESS PERIOD    2


  VOLUME BUDGET FOR ENTIRE MODEL AT END OF TIME STEP   90, STRESS PERIOD   2
  ---------------------------------------------------------------------------------------------------

     CUMULATIVE VOLUME      L**3       RATES FOR THIS TIME STEP      L**3/T          PACKAGE NAME    
     ------------------                 ------------------------                     ----------------

           IN:                                      IN:
           ---                                      ---
              STO-SS =          25.5569                STO-SS =       7.6706E-03     STORAGE                          
              STO-SY =       62745.9130                STO-SY =          15.8793     STORAGE                          
                 WEL =           0.0000                   WEL =           0.0000     WEL-1                            
                 DRN =           0.0000                   DRN =           0.0000     DRN-0                            
                 API =      184171.6465                   API =         204.7932     MAR                              
                 CHD =       2.0279E-08                   CHD =           0.0000     CHD_0                            

            TOTAL IN =      246943.1164              TOTAL IN =         220.6801

          OUT:                                     OUT:
          ----                                     ----
              STO-SS =          22.0953                STO-SS =       8.0348E-03     STORAGE                          
              STO-SY =       43180.5679                STO-SY =          15.8789     STORAGE                          
                 WEL =      203740.4528                   WEL =         204.7932     WEL-1                            
                 DRN =       2.9769E-04                   DRN =       3.0933E-07     DRN-0                            
                 API =           0.0000                   API =           0.0000     MAR                              
                 CHD =       2.0705E-08                   CHD =           0.0000     CHD_0                            

           TOTAL OUT =      246943.1164             TOTAL OUT =         220.6801

            IN - OUT =      -9.3831E-07              IN - OUT =       7.7236E-10

 PERCENT DISCREPANCY =          -0.00     PERCENT DISCREPANCY =           0.00




         TIME SUMMARY AT END OF TIME STEP   90 IN STRESS PERIOD    2
                    SECONDS     MINUTES      HOURS       DAYS        YEARS
                    -----------------------------------------------------------
   TIME STEP LENGTH 8.64000E+05  14400.      240.00      10.000     2.73785E-02
 STRESS PERIOD TIME 7.77600E+07 1.29600E+06  21600.      900.00      2.4641    
         TOTAL TIME 7.78464E+07 1.29744E+06  21624.      901.00      2.4668    


end timestep


start timestep kper="2" kstp="91" mode="normal"

 UBDSV1 SAVING           STO-SS ON UNIT   1099 AT TIME STEP     91, STRESS PERIOD      2
 UBDSV1 SAVING           STO-SY ON UNIT   1099 AT TIME STEP     91, STRESS PERIOD      2
 UBDSV1 SAVING     FLOW-JA-FACE ON UNIT   1099 AT TIME STEP     91, STRESS PERIOD      2
 UBDSV06 SAVING       DATA-SPDIS IN MODEL GWF              PACKAGE NPF             CONNECTED TO MODEL GWF              PACKAGE NPF              ON UNIT   1099 AT TIME STEP     91, STRESS PERIOD      2
 UBDSV06 SAVING              WEL IN MODEL GWF              PACKAGE GWF             CONNECTED TO MODEL GWF              PACKAGE WEL-1            ON UNIT   1099 AT TIME STEP     91, STRESS PERIOD      2
 UBDSV06 SAVING              DRN IN MODEL GWF              PACKAGE GWF             CONNECTED TO MODEL GWF              PACKAGE DRN-0            ON UNIT   1099 AT TIME STEP     91, STRESS PERIOD      2
 UBDSV06 SAVING              API IN MODEL GWF              PACKAGE GWF             CONNECTED TO MODEL GWF              PACKAGE MAR              ON UNIT   1099 AT TIME STEP     91, STRESS PERIOD      2
 UBDSV06 SAVING              CHD IN MODEL GWF              PACKAGE GWF             CONNECTED TO MODEL GWF              PACKAGE CHD_0            ON UNIT   1099 AT TIME STEP     91, STRESS PERIOD      2

    CALCULATED INTERCELL FLOW FOR PERIOD 2 STEP 91
(1,1,1): (1,1,2) 7.606251E-02 (1,2,1) 5.902008E-02
(1,1,2): (1,1,1) -7.606251E-02 (1,1,3) 0.141815 (1,2,2) 9.131651E-02
(1,1,3): (1,1,2) -0.141815 (1,1,4) 0.177018 (1,2,3) 0.159845
(1,1,4): (1,1,3) -0.177018 (1,1,5) 0.153923 (1,2,4) 0.261184
(1,1,5): (1,1,4) -0.153923 (1,1,6) 6.340622E-02 (1,2,5) 0.363485
(1,1,6): (1,1,5) -6.340622E-02 (1,1,7) -5.148474E-02 (1,2,6) 0.403640
(1,1,7): (1,1,6) 5.148474E-02 (1,1,8) -0.135547 (1,2,7) 0.365907
(1,1,8): (1,1,7) 0.135547 (1,1,9) -0.145005 (1,2,8) 0.267792
(1,1,9): (1,1,8) 0.145005 (1,1,10) -8.911789E-02 (1,2,9) 0.175082
(1,1,10): (1,1,9) 8.911789E-02 (1,2,10) 0.124007
(1,2,1): (1,1,1) -5.902008E-02 (1,2,2) 0.108364 (1,3,1) 8.737223E-02
(1,2,2): (1,1,2) -9.131651E-02 (1,2,1) -0.108364 (1,2,3) 0.210377 (1,3,2) 0.148096
(1,2,3): (1,1,3) -0.159845 (1,2,2) -0.210377 (1,2,4) 0.278374 (1,3,3) 0.289267
(1,2,4): (1,1,4) -0.261184 (1,2,3) -0.278374 (1,2,5) 0.256118 (1,3,4) 0.525444
(1,2,5): (1,1,5) -0.363485 (1,2,4) -0.256118 (1,2,6) 0.103444 (1,3,5) 0.794961
(1,2,6): (1,1,6) -0.403640 (1,2,5) -0.103444 (1,2,7) -8.910333E-02 (1,3,6) 0.891745
(1,2,7): (1,1,7) -0.365907 (1,2,6) 8.910333E-02 (1,2,8) -0.233535 (1,3,7) 0.798167
(1,2,8): (1,1,8) -0.267792 (1,2,7) 0.233535 (1,2,9) -0.237688 (1,3,8) 0.534413
(1,2,9): (1,1,9) -0.175082 (1,2,8) 0.237688 (1,2,10) -0.140175 (1,3,9) 0.311049
(1,2,10): (1,1,10) -0.124007 (1,2,9) 0.140175 (1,3,10) 0.198664
(1,3,1): (1,2,1) -8.737223E-02 (1,3,2) 0.169101 (1,4,1) 4.399826E-02
(1,3,2): (1,2,2) -0.148096 (1,3,1) -0.169101 (1,3,3) 0.351634 (1,4,2) 0.111570
(1,3,3): (1,2,3) -0.289267 (1,3,2) -0.351634 (1,3,4) 0.514526 (1,4,3) 0.309383
(1,3,4): (1,2,4) -0.525444 (1,3,3) -0.514526 (1,3,5) 0.524941 (1,4,4) 0.743220
(1,3,5): (1,2,5) -0.794961 (1,3,4) -0.524941 (1,3,6) 0.199596 (1,4,5) 1.38776
(1,3,6): (1,2,6) -0.891745 (1,3,5) -0.199596 (1,3,7) -0.182054 (1,4,6) 1.55900
(1,3,7): (1,2,7) -0.798167 (1,3,6) 0.182054 (1,3,8) -0.496530 (1,4,7) 1.38849
(1,3,8): (1,2,8) -0.534413 (1,3,7) 0.496530 (1,3,9) -0.460894 (1,4,8) 0.745728
(1,3,9): (1,2,9) -0.311049 (1,3,8) 0.460894 (1,3,10) -0.252496 (1,4,9) 0.318172
(1,3,10): (1,2,10) -0.198664 (1,3,9) 0.252496 (1,4,10) 0.142240
(1,4,1): (1,3,1) -4.399826E-02 (1,4,2) 0.236756 (1,5,1) -0.110392
(1,4,2): (1,3,2) -0.111570 (1,4,1) -0.236756 (1,4,3) 0.549911 (1,5,2) -0.105077
(1,4,3): (1,3,3) -0.309383 (1,4,2) -0.549911 (1,4,4) 0.949213 (1,5,3) 3.651073E-02
(1,4,4): (1,3,4) -0.743220 (1,4,3) -0.949213 (1,4,5) 1.16817 (1,5,4) 0.693900
(1,4,5): (1,3,5) -1.38776 (1,4,4) -1.16817 (1,4,6) 0.368991 (1,5,5) 2.39933
(1,4,6): (1,3,6) -1.55900 (1,4,5) -0.368991 (1,4,7) -0.350690 (1,5,6) 2.51148
(1,4,7): (1,3,7) -1.38849 (1,4,6) 0.350690 (1,4,8) -1.13780 (1,5,7) 2.39375
(1,4,8): (1,3,8) -0.745728 (1,4,7) 1.13780 (1,4,9) -0.889034 (1,5,8) 0.678901
(1,4,9): (1,3,9) -0.318172 (1,4,8) 0.889034 (1,4,10) -0.428616 (1,5,9) 4.349841E-03
(1,4,10): (1,3,10) -0.142240 (1,4,9) 0.428616 (1,5,10) -0.159705
(1,5,1): (1,4,1) 0.110392 (1,5,2) 0.242079 (1,6,1) -0.355789
(1,5,2): (1,4,2) 0.105077 (1,5,1) -0.242079 (1,5,3) 0.692299 (1,6,2) -0.556161
(1,5,3): (1,4,3) -3.651073E-02 (1,5,2) -0.692299 (1,5,4) 1.61231 (1,6,3) -0.867936
(1,5,4): (1,4,4) -0.693900 (1,5,3) -1.61231 (1,5,5) 2.88089 (1,6,4) -0.517709
(1,5,5): (1,4,5) -2.39933 (1,5,4) -2.88089 (1,5,6) 0.479296 (1,6,5) 4.91274
(1,5,6): (1,4,6) -2.51148 (1,5,5) -0.479296 (1,5,7) -0.466451 (1,6,6) 3.59593
(1,5,7): (1,4,7) -2.39375 (1,5,6) 0.466451 (1,5,8) -2.85976 (1,6,7) 4.89948
(1,5,8): (1,4,8) -0.678901 (1,5,7) 2.85976 (1,5,9) -1.56926 (1,6,8) -0.554723
(1,5,9): (1,4,9) -4.349841E-03 (1,5,8) 1.56926 (1,5,10) -0.593366 (1,6,9) -0.959370
(1,5,10): (1,4,10) 0.159705 (1,5,9) 0.593366 (1,6,10) -0.761360
(1,6,1): (1,5,1) 0.355789 (1,6,2) 4.232626E-02 (1,7,1) -0.515209
(1,6,2): (1,5,2) 0.556161 (1,6,1) -4.232626E-02 (1,6,3) 0.381052 (1,7,2) -1.02570
(1,6,3): (1,5,3) 0.867936 (1,6,2) -0.381052 (1,6,4) 1.96630 (1,7,3) -2.58693
(1,6,4): (1,5,4) 0.517709 (1,6,3) -1.96630 (1,6,5) 8.46950 (1,7,4) -7.11315
(1,6,5): (1,5,5) -4.91274 (1,6,4) -8.46950 (1,6,6) -0.795567 (1,7,5) -21.6938
(1,6,6): (1,5,6) -3.59593 (1,6,5) 0.795567 (1,6,7) 0.795634 (1,7,6) -33.8244
(1,6,7): (1,5,7) -4.89948 (1,6,6) -0.795634 (1,6,8) -8.47328 (1,7,7) -21.7089
(1,6,8): (1,5,8) 0.554723 (1,6,7) 8.47328 (1,6,9) -1.97793 (1,7,8) -7.15844
(1,6,9): (1,5,9) 0.959370 (1,6,8) 1.97793 (1,6,10) -0.396045 (1,7,9) -2.70907
(1,6,10): (1,5,10) 0.761360 (1,6,9) 0.396045 (1,7,10) -1.34494
(1,7,1): (1,6,1) 0.515209 (1,7,2) -0.465332 (1,8,1) -0.269625
(1,7,2): (1,6,2) 1.02570 (1,7,1) 0.465332 (1,7,3) -1.15982 (1,8,2) -0.582576
(1,7,3): (1,6,3) 2.58693 (1,7,2) 1.15982 (1,7,4) -2.39997 (1,8,3) -1.62903
(1,7,4): (1,6,4) 7.11315 (1,7,3) 2.39997 (1,7,5) -4.83308 (1,8,4) -4.94576
(1,7,5): (1,6,5) 21.6938 (1,7,4) 4.83308 (1,7,6) -10.7923 (1,8,5) -15.9130
(1,7,6): (1,6,6) 33.8244 (1,7,5) 10.7923 (1,7,7) 10.7784 (1,8,6) -55.4884
(1,7,7): (1,6,7) 21.7089 (1,7,6) -10.7784 (1,7,8) 4.79804 (1,8,7) -15.9189
(1,7,8): (1,6,8) 7.15844 (1,7,7) -4.79804 (1,7,9) 2.30968 (1,8,8) -4.96708
(1,7,9): (1,6,9) 2.70907 (1,7,8) -2.30968 (1,7,10) 0.946081 (1,8,9) -1.69012
(1,7,10): (1,6,10) 1.34494 (1,7,9) -0.946081 (1,8,10) -0.752599
(1,8,1): (1,7,1) 0.269625 (1,8,2) -0.778908 (1,9,1) 0.244532
(1,8,2): (1,7,2) 0.582576 (1,8,1) 0.778908 (1,8,3) -2.21255 (1,9,2) 0.541386
(1,8,3): (1,7,3) 1.62903 (1,8,2) 2.21255 (1,8,4) -5.74446 (1,9,3) 1.53470
(1,8,4): (1,7,4) 4.94576 (1,8,3) 5.74446 (1,8,5) -15.7856 (1,9,4) 4.70399
(1,8,5): (1,7,5) 15.9130 (1,8,4) 15.7856 (1,8,6) -47.3492 (1,9,5) 15.3255
(1,8,6): (1,7,6) 55.4884 (1,8,5) 47.3492 (1,8,7) 47.3176 (1,9,6) 54.5059
(1,8,7): (1,7,7) 15.9189 (1,8,6) -47.3176 (1,8,8) 15.7279 (1,9,7) 15.3299
(1,8,8): (1,7,8) 4.96708 (1,8,7) -15.7279 (1,8,9) 5.60873 (1,9,8) 4.72202
(1,8,9): (1,7,9) 1.69012 (1,8,8) -5.60873 (1,8,10) 1.88550 (1,9,9) 1.58965
(1,8,10): (1,7,10) 0.752599 (1,8,9) -1.88550 (1,9,10) 0.699276
(1,9,1): (1,8,1) -0.244532 (1,9,2) -0.481336 (1,10,1) 0.496769
(1,9,2): (1,8,2) -0.541386 (1,9,1) 0.481336 (1,9,3) -1.21230 (1,10,2) 0.995410
(1,9,3): (1,8,3) -1.53470 (1,9,2) 1.21230 (1,9,4) -2.54043 (1,10,3) 2.50913
(1,9,4): (1,8,4) -4.70399 (1,9,3) 2.54043 (1,9,5) -5.11198 (1,10,4) 6.84107
(1,9,5): (1,8,5) -15.3255 (1,9,4) 5.11198 (1,9,6) -10.8296 (1,10,5) 20.5453
(1,9,6): (1,8,6) -54.5059 (1,9,5) 10.8296 (1,9,7) 10.8142 (1,10,6) 32.3876
(1,9,7): (1,8,7) -15.3299 (1,9,6) -10.8142 (1,9,8) 5.07497 (1,10,7) 20.5591
(1,9,8): (1,8,8) -4.72202 (1,9,7) -5.07497 (1,9,9) 2.44702 (1,10,8) 6.88378
(1,9,9): (1,8,9) -1.58965 (1,9,8) -2.44702 (1,9,10) 0.992390 (1,10,9) 2.62658
(1,9,10): (1,8,10) -0.699276 (1,9,9) -0.992390 (1,10,10) 1.30575
(1,10,1): (1,9,1) -0.496769 (1,10,2) 1.475273E-02 (1,11,1) 0.350285
(1,10,2): (1,9,2) -0.995410 (1,10,1) -1.475273E-02 (1,10,3) 0.282932 (1,11,2) 0.556576
(1,10,3): (1,9,3) -2.50913 (1,10,2) -0.282932 (1,10,4) 1.64401 (1,11,3) 0.900953
(1,10,4): (1,9,4) -6.84107 (1,10,3) -1.64401 (1,10,5) 7.40665 (1,11,4) 0.706306
(1,10,5): (1,9,5) -20.5453 (1,10,4) -7.40665 (1,10,6) -0.994453 (1,11,5) -3.99926
(1,10,6): (1,9,6) -32.3876 (1,10,5) 0.994453 (1,10,7) 0.992133 (1,11,6) -2.58910
(1,10,7): (1,9,7) -20.5591 (1,10,6) -0.992133 (1,10,8) -7.41365 (1,11,7) -3.98670
(1,10,8): (1,9,8) -6.88378 (1,10,7) 7.41365 (1,10,9) -1.66075 (1,11,8) 0.742074
(1,10,9): (1,9,9) -2.62658 (1,10,8) 1.66075 (1,10,10) -0.308162 (1,11,9) 0.990534
(1,10,10): (1,9,10) -1.30575 (1,10,9) 0.308162 (1,11,10) 0.760296
(1,11,1): (1,10,1) -0.350285 (1,11,2) 0.220359 (1,12,1) 0.113476
(1,11,2): (1,10,2) -0.556576 (1,11,1) -0.220359 (1,11,3) 0.626393 (1,12,2) 0.116658
(1,11,3): (1,10,3) -0.900953 (1,11,2) -0.626393 (1,11,4) 1.44790 (1,12,3) 7.118628E-03
(1,11,4): (1,10,4) -0.706306 (1,11,3) -1.44790 (1,11,5) 2.56877 (1,12,4) -0.553607
(1,11,5): (1,10,5) 3.99926 (1,11,4) -2.56877 (1,11,6) 0.381676 (1,12,5) -2.04287
(1,11,6): (1,10,6) 2.58910 (1,11,5) -0.381676 (1,11,7) -0.371805 (1,12,6) -2.09309
(1,11,7): (1,10,7) 3.98670 (1,11,6) 0.371805 (1,11,8) -2.55153 (1,12,7) -2.03732
(1,11,8): (1,10,8) -0.742074 (1,11,7) 2.55153 (1,11,9) -1.41062 (1,12,8) -0.538603
(1,11,9): (1,10,9) -0.990534 (1,11,8) 1.41062 (1,11,10) -0.537399 (1,12,9) 3.967432E-02
(1,11,10): (1,10,10) -0.760296 (1,11,9) 0.537399 (1,12,10) 0.173688
(1,12,1): (1,11,1) -0.113476 (1,12,2) 0.223544 (1,13,1) -3.728313E-02
(1,12,2): (1,11,2) -0.116658 (1,12,1) -0.223544 (1,12,3) 0.516306 (1,13,2) -9.961010E-02
(1,12,3): (1,11,3) -7.118628E-03 (1,12,2) -0.516306 (1,12,4) 0.882402 (1,13,3) -0.280848
(1,12,4): (1,11,4) 0.553607 (1,12,3) -0.882402 (1,12,5) 1.07246 (1,13,4) -0.674978
(1,12,5): (1,11,5) 2.04287 (1,12,4) -1.07246 (1,12,6) 0.332118 (1,13,5) -1.25482
(1,12,6): (1,11,6) 2.09309 (1,12,5) -0.332118 (1,12,7) -0.316793 (1,13,6) -1.40209
(1,12,7): (1,11,7) 2.03732 (1,12,6) 0.316793 (1,12,8) -1.04588 (1,13,7) -1.25520
(1,12,8): (1,11,8) 0.538603 (1,12,7) 1.04588 (1,12,9) -0.827558 (1,13,8) -0.676689
(1,12,9): (1,11,9) -3.967432E-02 (1,12,8) 0.827558 (1,12,10) -0.402907 (1,13,9) -0.288081
(1,12,10): (1,11,10) -0.173688 (1,12,9) 0.402907 (1,13,10) -0.126923
(1,13,1): (1,12,1) 3.728313E-02 (1,13,2) 0.161141 (1,14,1) -8.055912E-02
(1,13,2): (1,12,2) 9.961010E-02 (1,13,1) -0.161141 (1,13,3) 0.334651 (1,14,2) -0.138772
(1,13,3): (1,12,3) 0.280848 (1,13,2) -0.334651 (1,13,4) 0.487491 (1,14,3) -0.273139
(1,13,4): (1,12,4) 0.674978 (1,13,3) -0.487491 (1,13,5) 0.493603 (1,14,4) -0.495578
(1,13,5): (1,12,5) 1.25482 (1,13,4) -0.493603 (1,13,6) 0.186287 (1,14,5) -0.746423
(1,13,6): (1,12,6) 1.40209 (1,13,5) -0.186287 (1,13,7) -0.171359 (1,14,6) -0.835502
(1,13,7): (1,12,7) 1.25520 (1,13,6) 0.171359 (1,13,8) -0.468498 (1,14,7) -0.749186
(1,13,8): (1,12,8) 0.676689 (1,13,7) 0.468498 (1,13,9) -0.438390 (1,14,8) -0.503568
(1,13,9): (1,12,9) 0.288081 (1,13,8) 0.438390 (1,13,10) -0.241569 (1,14,9) -0.293187
(1,13,10): (1,12,10) 0.126923 (1,13,9) 0.241569 (1,14,10) -0.186366
(1,14,1): (1,13,1) 8.055912E-02 (1,14,2) 0.102915 (1,15,1) -5.481142E-02
(1,14,2): (1,13,2) 0.138772 (1,14,1) -0.102915 (1,14,3) 0.200203 (1,15,2) -8.611724E-02
(1,14,3): (1,13,3) 0.273139 (1,14,2) -0.200203 (1,14,4) 0.265070 (1,15,3) -0.152301
(1,14,4): (1,13,4) 0.495578 (1,14,3) -0.265070 (1,14,5) 0.243364 (1,15,4) -0.249541
(1,14,5): (1,13,5) 0.746423 (1,14,4) -0.243364 (1,14,6) 9.775598E-02 (1,15,5) -0.346923
(1,14,6): (1,13,6) 0.835502 (1,14,5) -9.775598E-02 (1,14,7) -8.558581E-02 (1,15,6) -0.384938
(1,14,7): (1,13,7) 0.749186 (1,14,6) 8.558581E-02 (1,14,8) -0.223539 (1,15,7) -0.349055
(1,14,8): (1,13,8) 0.503568 (1,14,7) 0.223539 (1,14,9) -0.228141 (1,15,8) -0.255511
(1,14,9): (1,13,9) 0.293187 (1,14,8) 0.228141 (1,14,10) -0.134802 (1,15,9) -0.166433
(1,14,10): (1,13,10) 0.186366 (1,14,9) 0.134802 (1,15,10) -0.117056
(1,15,1): (1,14,1) 5.481142E-02 (1,15,2) 7.160428E-02
(1,15,2): (1,14,2) 8.611724E-02 (1,15,1) -7.160428E-02 (1,15,3) 0.133988
(1,15,3): (1,14,3) 0.152301 (1,15,2) -0.133988 (1,15,4) 0.167815
(1,15,4): (1,14,4) 0.249541 (1,15,3) -0.167815 (1,15,5) 0.146081
(1,15,5): (1,14,5) 0.346923 (1,15,4) -0.146081 (1,15,6) 5.984580E-02
(1,15,6): (1,14,6) 0.384938 (1,15,5) -5.984580E-02 (1,15,7) -4.980642E-02
(1,15,7): (1,14,7) 0.349055 (1,15,6) 4.980642E-02 (1,15,8) -0.130110
(1,15,8): (1,14,8) 0.255511 (1,15,7) 0.130110 (1,15,9) -0.139087
(1,15,9): (1,14,9) 0.166433 (1,15,8) 0.139087 (1,15,10) -8.544028E-02
(1,15,10): (1,14,10) 0.117056 (1,15,9) 8.544028E-02

 WEL PACKAGE (WEL-1) FLOW RATES   PERIOD      2   STEP       91
 ----------------------------------------------------------------------------------------
   NUMBER   CELLID                    RATE       NAME                                    
 ----------------------------------------------------------------------------------------
     1      (1,8,6)              -204.71194      WEL                                     
 ----------------------------------------------------------------------------------------




 DRN PACKAGE (DRN-0) FLOW RATES   PERIOD      2   STEP       91
 ----------------------------------------------------------------------------------------
   NUMBER   CELLID                    RATE       NAME                                    
 ----------------------------------------------------------------------------------------
     1      (1,1,1)               0.0000000      SURF                                    
     2      (1,1,2)               0.0000000      SURF                                    
     3      (1,1,3)               0.0000000      SURF                                    
     4      (1,1,4)               0.0000000      SURF                                    
     5      (1,1,5)               0.0000000      SURF                                    
     6      (1,1,6)               0.0000000      SURF                                    
     7      (1,1,7)               0.0000000      SURF                                    
     8      (1,1,8)               0.0000000      SURF                                    
     9      (1,1,9)               0.0000000      SURF                                    
     10     (1,1,10)              0.0000000      SURF                                    
     11     (1,2,1)               0.0000000      SURF                                    
     12     (1,2,2)               0.0000000      SURF                                    
     13     (1,2,3)               0.0000000      SURF                                    
     14     (1,2,4)               0.0000000      SURF                                    
     15     (1,2,5)               0.0000000      SURF                                    
     16     (1,2,6)               0.0000000      SURF                                    
     17     (1,2,7)               0.0000000      SURF                                    
     18     (1,2,8)               0.0000000      SURF                                    
     19     (1,2,9)               0.0000000      SURF                                    
     20     (1,2,10)              0.0000000      SURF                                    
     21     (1,3,1)               0.0000000      SURF                                    
     22     (1,3,2)               0.0000000      SURF                                    
     23     (1,3,3)               0.0000000      SURF                                    
     24     (1,3,4)               0.0000000      SURF                                    
     25     (1,3,5)               0.0000000      SURF                                    
     26     (1,3,6)               0.0000000      SURF                                    
     27     (1,3,7)               0.0000000      SURF                                    
     28     (1,3,8)               0.0000000      SURF                                    
     29     (1,3,9)               0.0000000      SURF                                    
     30     (1,3,10)              0.0000000      SURF                                    
     31     (1,4,1)               0.0000000      SURF                                    
     32     (1,4,2)               0.0000000      SURF                                    
     33     (1,4,3)               0.0000000      SURF                                    
     34     (1,4,4)               0.0000000      SURF                                    
     35     (1,4,5)               0.0000000      SURF                                    
     36     (1,4,6)               0.0000000      SURF                                    
     37     (1,4,7)               0.0000000      SURF                                    
     38     (1,4,8)               0.0000000      SURF                                    
     39     (1,4,9)               0.0000000      SURF                                    
     40     (1,4,10)              0.0000000      SURF                                    
     41     (1,5,1)               0.0000000      SURF                                    
     42     (1,5,2)               0.0000000      SURF                                    
     43     (1,5,3)               0.0000000      SURF                                    
     44     (1,5,4)               0.0000000      SURF                                    
     45     (1,5,5)               0.0000000      SURF                                    
     46     (1,5,6)               0.0000000      SURF                                    
     47     (1,5,7)               0.0000000      SURF                                    
     48     (1,5,8)               0.0000000      SURF                                    
     49     (1,5,9)               0.0000000      SURF                                    
     50     (1,5,10)              0.0000000      SURF                                    
     51     (1,6,1)               0.0000000      SURF                                    
     52     (1,6,2)               0.0000000      SURF                                    
     53     (1,6,3)               0.0000000      SURF                                    
     54     (1,6,4)               0.0000000      SURF                                    
     55     (1,6,5)               0.0000000      SURF                                    
     56     (1,6,6)               0.0000000      SURF                                    
     57     (1,6,7)              -1.99288479E-07 SURF                                    
     58     (1,6,8)               0.0000000      SURF                                    
     59     (1,6,9)               0.0000000      SURF                                    
     60     (1,6,10)              0.0000000      SURF                                    
     61     (1,7,1)               0.0000000      SURF                                    
     62     (1,7,2)               0.0000000      SURF                                    
     63     (1,7,3)               0.0000000      SURF                                    
     64     (1,7,4)               0.0000000      SURF                                    
     65     (1,7,5)               0.0000000      SURF                                    
     66     (1,7,6)               0.0000000      SURF                                    
     67     (1,7,7)               0.0000000      SURF                                    
     68     (1,7,8)               0.0000000      SURF                                    
     69     (1,7,9)               0.0000000      SURF                                    
     70     (1,7,10)              0.0000000      SURF                                    
     71     (1,8,1)               0.0000000      SURF                                    
     72     (1,8,2)               0.0000000      SURF                                    
     73     (1,8,3)               0.0000000      SURF                                    
     74     (1,8,4)               0.0000000      SURF                                    
     75     (1,8,5)               0.0000000      SURF                                    
     76     (1,8,6)               0.0000000      SURF                                    
     77     (1,8,7)               0.0000000      SURF                                    
     78     (1,8,8)               0.0000000      SURF                                    
     79     (1,8,9)               0.0000000      SURF                                    
     80     (1,8,10)              0.0000000      SURF                                    
     81     (1,9,1)               0.0000000      SURF                                    
     82     (1,9,2)               0.0000000      SURF                                    
     83     (1,9,3)               0.0000000      SURF                                    
     84     (1,9,4)               0.0000000      SURF                                    
     85     (1,9,5)               0.0000000      SURF                                    
     86     (1,9,6)               0.0000000      SURF                                    
     87     (1,9,7)               0.0000000      SURF                                    
     88     (1,9,8)               0.0000000      SURF                                    
     89     (1,9,9)               0.0000000      SURF                                    
     90     (1,9,10)              0.0000000      SURF                                    
     91     (1,10,1)              0.0000000      SURF                                    
     92     (1,10,2)              0.0000000      SURF                                    
     93     (1,10,3)              0.0000000      SURF                                    
     94     (1,10,4)              0.0000000      SURF                                    
     95     (1,10,5)              0.0000000      SURF                                    
     96     (1,10,6)              0.0000000      SURF                                    
     97     (1,10,7)              0.0000000      SURF                                    
     98     (1,10,8)              0.0000000      SURF                                    
     99     (1,10,9)              0.0000000      SURF                                    
    100     (1,10,10)             0.0000000      SURF                                    
    101     (1,11,1)              0.0000000      SURF                                    
    102     (1,11,2)              0.0000000      SURF                                    
    103     (1,11,3)              0.0000000      SURF                                    
    104     (1,11,4)              0.0000000      SURF                                    
    105     (1,11,5)              0.0000000      SURF                                    
    106     (1,11,6)              0.0000000      SURF                                    
    107     (1,11,7)              0.0000000      SURF                                    
    108     (1,11,8)              0.0000000      SURF                                    
    109     (1,11,9)              0.0000000      SURF                                    
    110     (1,11,10)             0.0000000      SURF                                    
    111     (1,12,1)              0.0000000      SURF                                    
    112     (1,12,2)              0.0000000      SURF                                    
    113     (1,12,3)              0.0000000      SURF                                    
    114     (1,12,4)              0.0000000      SURF                                    
    115     (1,12,5)              0.0000000      SURF                                    
    116     (1,12,6)              0.0000000      SURF                                    
    117     (1,12,7)              0.0000000      SURF                                    
    118     (1,12,8)              0.0000000      SURF                                    
    119     (1,12,9)              0.0000000      SURF                                    
    120     (1,12,10)             0.0000000      SURF                                    
    121     (1,13,1)              0.0000000      SURF                                    
    122     (1,13,2)              0.0000000      SURF                                    
    123     (1,13,3)              0.0000000      SURF                                    
    124     (1,13,4)              0.0000000      SURF                                    
    125     (1,13,5)              0.0000000      SURF                                    
    126     (1,13,6)              0.0000000      SURF                                    
    127     (1,13,7)              0.0000000      SURF                                    
    128     (1,13,8)              0.0000000      SURF                                    
    129     (1,13,9)              0.0000000      SURF                                    
    130     (1,13,10)             0.0000000      SURF                                    
    131     (1,14,1)              0.0000000      SURF                                    
    132     (1,14,2)              0.0000000      SURF                                    
    133     (1,14,3)              0.0000000      SURF                                    
    134     (1,14,4)              0.0000000      SURF                                    
    135     (1,14,5)              0.0000000      SURF                                    
    136     (1,14,6)              0.0000000      SURF                                    
    137     (1,14,7)              0.0000000      SURF                                    
    138     (1,14,8)              0.0000000      SURF                                    
    139     (1,14,9)              0.0000000      SURF                                    
    140     (1,14,10)             0.0000000      SURF                                    
    141     (1,15,1)              0.0000000      SURF                                    
    142     (1,15,2)              0.0000000      SURF                                    
    143     (1,15,3)              0.0000000      SURF                                    
    144     (1,15,4)              0.0000000      SURF                                    
    145     (1,15,5)              0.0000000      SURF                                    
    146     (1,15,6)              0.0000000      SURF                                    
    147     (1,15,7)              0.0000000      SURF                                    
    148     (1,15,8)              0.0000000      SURF                                    
    149     (1,15,9)              0.0000000      SURF                                    
    150     (1,15,10)             0.0000000      SURF                                    
 ----------------------------------------------------------------------------------------




 API PACKAGE (MAR) FLOW RATES   PERIOD      2   STEP       91
 -----------------------------------------------
   NUMBER   CELLID                    RATE      
 -----------------------------------------------
     1      (1,6,5)               35.877321     
     2      (1,6,6)               35.877321     
     3      (1,6,7)               35.877321     
     4      (1,10,5)              32.359991     
     5      (1,10,6)              32.359991     
     6      (1,10,7)              32.359991     
 -----------------------------------------------



1
  HEAD IN LAYER   1 AT END OF TIME STEP  91 IN STRESS PERIOD    2
  ---------------------------------------------------------------------------

            1           2           3           4           5           6           7           8           9          10
 ........................................................................................................................
   1   2.3127E-02  3.0710E-02  4.4828E-02  6.2420E-02  7.7694E-02  8.3982E-02  7.8876E-02  6.5427E-02  5.1021E-02  4.2155E-02
   2   2.9012E-02  3.9805E-02  6.0716E-02  8.8310E-02  0.1136      0.1239      0.1151      9.1963E-02  6.8410E-02  5.4488E-02
   3   3.7716E-02  5.4535E-02  8.9387E-02  0.1401      0.1916      0.2112      0.1934      0.1446      9.9210E-02  7.4208E-02
   4   4.2098E-02  6.5619E-02  0.1200      0.2129      0.3260      0.3616      0.3278      0.2176      0.1306      8.8308E-02
   5   3.1105E-02  5.5180E-02  0.1236      0.2804      0.5534      0.5986      0.5546      0.2836      0.1310      7.2477E-02
   6  -4.3637E-03 -1.3097E-04  3.7831E-02  0.2300       1.000      0.9277       1.000      0.2297      3.6350E-02 -3.1112E-03
   7  -5.5907E-02 -0.1027     -0.2199     -0.4653     -0.9722      -2.168     -0.9735     -0.4701     -0.2336     -0.1376    
   8  -8.3021E-02 -0.1616     -0.3865     -0.9840      -2.735      -9.252      -2.737     -0.9913     -0.4066     -0.2140    
   9  -5.8424E-02 -0.1068     -0.2294     -0.4894      -1.027      -2.234      -1.028     -0.4945     -0.2437     -0.1430    
  10  -8.7041E-03 -7.2277E-03  2.1006E-02  0.1825      0.8642      0.7727      0.8640      0.1816      1.8479E-02 -1.2281E-02
  11   2.6233E-02  4.8163E-02  0.1101      0.2514      0.4961      0.5323      0.4970      0.2540      0.1164      6.3271E-02
  12   3.7538E-02  5.9760E-02  0.1108      0.1974      0.3015      0.3336      0.3029      0.2014      0.1203      8.0501E-02
  13   3.3824E-02  4.9858E-02  8.3047E-02  0.1312      0.1797      0.1979      0.1811      0.1351      9.1847E-02  6.7910E-02
  14   2.5795E-02  3.6049E-02  5.5958E-02  8.2249E-02  0.1063      0.1160      0.1075      8.5416E-02  6.2795E-02  4.9399E-02
  15   2.0328E-02  2.7469E-02  4.0813E-02  5.7498E-02  7.2002E-02  7.7940E-02  7.2998E-02  6.0082E-02  4.6256E-02  3.7751E-02

 HEAD WILL BE SAVED ON UNIT 1100 AT END OF TIME STEP   91, STRESS PERIOD    2


  VOLUME BUDGET FOR ENTIRE MODEL AT END OF TIME STEP   91, STRESS PERIOD   2
  ---------------------------------------------------------------------------------------------------

     CUMULATIVE VOLUME      L**3       RATES FOR THIS TIME STEP      L**3/T          PACKAGE NAME    
     ------------------                 ------------------------                     ----------------

           IN:                                      IN:
           ---                                      ---
              STO-SS =          25.6328                STO-SS =       7.5901E-03     STORAGE                          
              STO-SY =       62903.0006                STO-SY =          15.7088     STORAGE                          
                 WEL =           0.0000                   WEL =           0.0000     WEL-1                            
                 DRN =           0.0000                   DRN =           0.0000     DRN-0                            
                 API =      186218.7659                   API =         204.7119     MAR                              
                 CHD =       2.0279E-08                   CHD =           0.0000     CHD_0                            

            TOTAL IN =      249147.3992              TOTAL IN =         220.4283

          OUT:                                     OUT:
          ----                                     ----
              STO-SS =          22.1748                STO-SS =       7.9489E-03     STORAGE                          
              STO-SY =       43337.6520                STO-SY =          15.7084     STORAGE                          
                 WEL =      205787.5721                   WEL =         204.7119     WEL-1                            
                 DRN =       2.9968E-04                   DRN =       1.9929E-07     DRN-0                            
                 API =           0.0000                   API =           0.0000     MAR                              
                 CHD =       2.0705E-08                   CHD =           0.0000     CHD_0                            

           TOTAL OUT =      249147.3992             TOTAL OUT =         220.4283

            IN - OUT =      -9.3778E-07              IN - OUT =       5.5223E-11

 PERCENT DISCREPANCY =          -0.00     PERCENT DISCREPANCY =           0.00




         TIME SUMMARY AT END OF TIME STEP   91 IN STRESS PERIOD    2
                    SECONDS     MINUTES      HOURS       DAYS        YEARS
                    -----------------------------------------------------------
   TIME STEP LENGTH 8.64000E+05  14400.      240.00      10.000     2.73785E-02
 STRESS PERIOD TIME 7.86240E+07 1.31040E+06  21840.      910.00      2.4914    
         TOTAL TIME 7.87104E+07 1.31184E+06  21864.      911.00      2.4942    


end timestep


start timestep kper="2" kstp="92" mode="normal"

 UBDSV1 SAVING           STO-SS ON UNIT   1099 AT TIME STEP     92, STRESS PERIOD      2
 UBDSV1 SAVING           STO-SY ON UNIT   1099 AT TIME STEP     92, STRESS PERIOD      2
 UBDSV1 SAVING     FLOW-JA-FACE ON UNIT   1099 AT TIME STEP     92, STRESS PERIOD      2
 UBDSV06 SAVING       DATA-SPDIS IN MODEL GWF              PACKAGE NPF             CONNECTED TO MODEL GWF              PACKAGE NPF              ON UNIT   1099 AT TIME STEP     92, STRESS PERIOD      2
 UBDSV06 SAVING              WEL IN MODEL GWF              PACKAGE GWF             CONNECTED TO MODEL GWF              PACKAGE WEL-1            ON UNIT   1099 AT TIME STEP     92, STRESS PERIOD      2
 UBDSV06 SAVING              DRN IN MODEL GWF              PACKAGE GWF             CONNECTED TO MODEL GWF              PACKAGE DRN-0            ON UNIT   1099 AT TIME STEP     92, STRESS PERIOD      2
 UBDSV06 SAVING              API IN MODEL GWF              PACKAGE GWF             CONNECTED TO MODEL GWF              PACKAGE MAR              ON UNIT   1099 AT TIME STEP     92, STRESS PERIOD      2
 UBDSV06 SAVING              CHD IN MODEL GWF              PACKAGE GWF             CONNECTED TO MODEL GWF              PACKAGE CHD_0            ON UNIT   1099 AT TIME STEP     92, STRESS PERIOD      2

    CALCULATED INTERCELL FLOW FOR PERIOD 2 STEP 92
(1,1,1): (1,1,2) 7.715627E-02 (1,2,1) 5.907112E-02
(1,1,2): (1,1,1) -7.715627E-02 (1,1,3) 0.143710 (1,2,2) 9.137185E-02
(1,1,3): (1,1,2) -0.143710 (1,1,4) 0.179175 (1,2,3) 0.159935
(1,1,4): (1,1,3) -0.179175 (1,1,5) 0.155678 (1,2,4) 0.261360
(1,1,5): (1,1,4) -0.155678 (1,1,6) 6.420416E-02 (1,2,5) 0.363771
(1,1,6): (1,1,5) -6.420416E-02 (1,1,7) -5.182705E-02 (1,2,6) 0.403980
(1,1,7): (1,1,6) 5.182705E-02 (1,1,8) -0.136723 (1,2,7) 0.366199
(1,1,8): (1,1,7) 0.136723 (1,1,9) -0.146371 (1,2,8) 0.267977
(1,1,9): (1,1,8) 0.146371 (1,1,10) -9.000623E-02 (1,2,9) 0.175174
(1,1,10): (1,1,9) 9.000623E-02 (1,2,10) 0.124053
(1,2,1): (1,1,1) -5.907112E-02 (1,2,2) 0.109463 (1,3,1) 8.677365E-02
(1,2,2): (1,1,2) -9.137185E-02 (1,2,1) -0.109463 (1,2,3) 0.212309 (1,3,2) 0.147411
(1,2,3): (1,1,3) -0.159935 (1,2,2) -0.212309 (1,2,4) 0.280618 (1,3,3) 0.288510
(1,2,4): (1,1,4) -0.261360 (1,2,3) -0.280618 (1,2,5) 0.257984 (1,3,4) 0.524739
(1,2,5): (1,1,5) -0.363771 (1,2,4) -0.257984 (1,2,6) 0.104297 (1,3,5) 0.794413
(1,2,6): (1,1,6) -0.403980 (1,2,5) -0.104297 (1,2,7) -8.949321E-02 (1,3,6) 0.891282
(1,2,7): (1,1,7) -0.366199 (1,2,6) 8.949321E-02 (1,2,8) -0.234819 (1,3,7) 0.797587
(1,2,8): (1,1,8) -0.267977 (1,2,7) 0.234819 (1,2,9) -0.239149 (1,3,8) 0.533618
(1,2,9): (1,1,9) -0.175174 (1,2,8) 0.239149 (1,2,10) -0.141110 (1,3,9) 0.310104
(1,2,10): (1,1,10) -0.124053 (1,2,9) 0.141110 (1,3,10) 0.197667
(1,3,1): (1,2,1) -8.677365E-02 (1,3,2) 0.170113 (1,4,1) 4.178535E-02
(1,3,2): (1,2,2) -0.147411 (1,3,1) -0.170113 (1,3,3) 0.353497 (1,4,2) 0.109057
(1,3,3): (1,2,3) -0.288510 (1,3,2) -0.353497 (1,3,4) 0.516830 (1,4,3) 0.306526
(1,3,4): (1,2,4) -0.524739 (1,3,3) -0.516830 (1,3,5) 0.526971 (1,4,4) 0.740281
(1,3,5): (1,2,5) -0.794413 (1,3,4) -0.526971 (1,3,6) 0.200534 (1,4,5) 1.38504
(1,3,6): (1,2,6) -0.891282 (1,3,5) -0.200534 (1,3,7) -0.182561 (1,4,6) 1.55641
(1,3,7): (1,2,7) -0.797587 (1,3,6) 0.182561 (1,3,8) -0.498034 (1,4,7) 1.38564
(1,3,8): (1,2,8) -0.533618 (1,3,7) 0.498034 (1,3,9) -0.462509 (1,4,8) 0.742455
(1,3,9): (1,2,9) -0.310104 (1,3,8) 0.462509 (1,3,10) -0.253485 (1,4,9) 0.314680
(1,3,10): (1,2,10) -0.197667 (1,3,9) 0.253485 (1,4,10) 0.138716
(1,4,1): (1,3,1) -4.178535E-02 (1,4,2) 0.237470 (1,5,1) -0.114688
(1,4,2): (1,3,2) -0.109057 (1,4,1) -0.237470 (1,4,3) 0.551437 (1,5,2) -0.109945
(1,4,3): (1,3,3) -0.306526 (1,4,2) -0.551437 (1,4,4) 0.951458 (1,5,3) 3.097236E-02
(1,4,4): (1,3,4) -0.740281 (1,4,3) -0.951458 (1,4,5) 1.17045 (1,5,4) 0.688218
(1,4,5): (1,3,5) -1.38504 (1,4,4) -1.17045 (1,4,6) 0.370066 (1,5,5) 2.39421
(1,4,6): (1,3,6) -1.55641 (1,4,5) -0.370066 (1,4,7) -0.351470 (1,5,6) 2.50672
(1,4,7): (1,3,7) -1.38564 (1,4,6) 0.351470 (1,4,8) -1.13975 (1,5,7) 2.38837
(1,4,8): (1,3,8) -0.742455 (1,4,7) 1.13975 (1,4,9) -0.890889 (1,5,8) 0.672576
(1,4,9): (1,3,9) -0.314680 (1,4,8) 0.890889 (1,4,10) -0.429645 (1,5,9) -2.381328E-03
(1,4,10): (1,3,10) -0.138716 (1,4,9) 0.429645 (1,5,10) -0.166463
(1,5,1): (1,4,1) 0.114688 (1,5,2) 0.242219 (1,6,1) -0.361432
(1,5,2): (1,4,2) 0.109945 (1,5,1) -0.242219 (1,5,3) 0.693149 (1,6,2) -0.562592
(1,5,3): (1,4,3) -3.097236E-02 (1,5,2) -0.693149 (1,5,4) 1.61446 (1,6,3) -0.875345
(1,5,4): (1,4,4) -0.688218 (1,5,3) -1.61446 (1,5,5) 2.88386 (1,6,4) -0.525226
(1,5,5): (1,4,5) -2.39421 (1,5,4) -2.88386 (1,5,6) 0.480726 (1,6,5) 4.90680
(1,5,6): (1,4,6) -2.50672 (1,5,5) -0.480726 (1,5,7) -0.467845 (1,6,6) 3.59116
(1,5,7): (1,4,7) -2.38837 (1,5,6) 0.467845 (1,5,8) -2.86278 (1,6,7) 4.89343
(1,5,8): (1,4,8) -0.672576 (1,5,7) 2.86278 (1,5,9) -1.57158 (1,6,8) -0.563051
(1,5,9): (1,4,9) 2.381328E-03 (1,5,8) 1.57158 (1,5,10) -0.594412 (1,6,9) -0.968318
(1,5,10): (1,4,10) 0.166463 (1,5,9) 0.594412 (1,6,10) -0.770233
(1,6,1): (1,5,1) 0.361432 (1,6,2) 4.169416E-02 (1,7,1) -0.520236
(1,6,2): (1,5,2) 0.562592 (1,6,1) -4.169416E-02 (1,6,3) 0.380946 (1,7,2) -1.03155
(1,6,3): (1,5,3) 0.875345 (1,6,2) -0.380946 (1,6,4) 1.96833 (1,7,3) -2.59405
(1,6,4): (1,5,4) 0.525226 (1,6,3) -1.96833 (1,6,5) 8.47452 (1,7,4) -7.12148
(1,6,5): (1,5,5) -4.90680 (1,6,4) -8.47452 (1,6,6) -0.793049 (1,7,5) -21.7035
(1,6,6): (1,5,6) -3.59116 (1,6,5) 0.793049 (1,6,7) 0.793048 (1,7,6) -33.8326
(1,6,7): (1,5,7) -4.89343 (1,6,6) -0.793048 (1,6,8) -8.47912 (1,7,7) -21.7191
(1,6,8): (1,5,8) 0.563051 (1,6,7) 8.47912 (1,6,9) -1.98086 (1,7,8) -7.16749
(1,6,9): (1,5,9) 0.968318 (1,6,8) 1.98086 (1,6,10) -0.397032 (1,7,9) -2.71753
(1,6,10): (1,5,10) 0.770233 (1,6,9) 0.397032 (1,7,10) -1.35297
(1,7,1): (1,6,1) 0.520236 (1,7,2) -0.466762 (1,8,1) -0.271809
(1,7,2): (1,6,2) 1.03155 (1,7,1) 0.466762 (1,7,3) -1.16108 (1,8,2) -0.585355
(1,7,3): (1,6,3) 2.59405 (1,7,2) 1.16108 (1,7,4) -2.39878 (1,8,3) -1.63295
(1,7,4): (1,6,4) 7.12148 (1,7,3) 2.39878 (1,7,5) -4.82836 (1,8,4) -4.95099
(1,7,5): (1,6,5) 21.7035 (1,7,4) 4.82836 (1,7,6) -10.7875 (1,8,5) -15.9180
(1,7,6): (1,6,6) 33.8326 (1,7,5) 10.7875 (1,7,7) 10.7730 (1,8,6) -55.4836
(1,7,7): (1,6,7) 21.7191 (1,7,6) -10.7730 (1,7,8) 4.79232 (1,8,7) -15.9240
(1,7,8): (1,6,8) 7.16749 (1,7,7) -4.79232 (1,7,9) 2.30694 (1,8,8) -4.97258
(1,7,9): (1,6,9) 2.71753 (1,7,8) -2.30694 (1,7,10) 0.945411 (1,8,9) -1.69459
(1,7,10): (1,6,10) 1.35297 (1,7,9) -0.945411 (1,8,10) -0.756358
(1,8,1): (1,7,1) 0.271809 (1,8,2) -0.780931 (1,9,1) 0.246223
(1,8,2): (1,7,2) 0.585355 (1,8,1) 0.780931 (1,8,3) -2.21495 (1,9,2) 0.542855
(1,8,3): (1,7,3) 1.63295 (1,8,2) 2.21495 (1,8,4) -5.74442 (1,9,3) 1.53503
(1,8,4): (1,7,4) 4.95099 (1,8,3) 5.74442 (1,8,5) -15.7793 (1,9,4) 4.70080
(1,8,5): (1,7,5) 15.9180 (1,8,4) 15.7793 (1,8,6) -47.3291 (1,9,5) 15.3136
(1,8,6): (1,7,6) 55.4836 (1,8,5) 47.3291 (1,8,7) 47.2964 (1,9,6) 54.4733
(1,8,7): (1,7,7) 15.9240 (1,8,6) -47.2964 (1,8,8) 15.7202 (1,9,7) 15.3181
(1,8,8): (1,7,8) 4.97258 (1,8,7) -15.7202 (1,8,9) 5.60676 (1,9,8) 4.71907
(1,8,9): (1,7,9) 1.69459 (1,8,8) -5.60676 (1,8,10) 1.88550 (1,9,9) 1.59045
(1,8,10): (1,7,10) 0.756358 (1,8,9) -1.88550 (1,9,10) 0.701381
(1,9,1): (1,8,1) -0.246223 (1,9,2) -0.483581 (1,10,1) 0.501510
(1,9,2): (1,8,2) -0.542855 (1,9,1) 0.483581 (1,9,3) -1.21582 (1,10,2) 1.00050
(1,9,3): (1,8,3) -1.53503 (1,9,2) 1.21582 (1,9,4) -2.54382 (1,10,3) 2.51397
(1,9,4): (1,8,4) -4.70080 (1,9,3) 2.54382 (1,9,5) -5.11380 (1,10,4) 6.84283
(1,9,5): (1,8,5) -15.3136 (1,9,4) 5.11380 (1,9,6) -10.8257 (1,10,5) 20.5350
(1,9,6): (1,8,6) -54.4733 (1,9,5) 10.8257 (1,9,7) 10.8096 (1,10,6) 32.3700
(1,9,7): (1,8,7) -15.3181 (1,9,6) -10.8096 (1,9,8) 5.07578 (1,10,7) 20.5491
(1,9,8): (1,8,8) -4.71907 (1,9,7) -5.07578 (1,9,9) 2.44879 (1,10,8) 6.88623
(1,9,9): (1,8,9) -1.59045 (1,9,8) -2.44879 (1,9,10) 0.993703 (1,10,9) 2.63272
(1,9,10): (1,8,10) -0.701381 (1,9,9) -0.993703 (1,10,10) 1.31282
(1,10,1): (1,9,1) -0.501510 (1,10,2) 1.284313E-02 (1,11,1) 0.355999
(1,10,2): (1,9,2) -1.00050 (1,10,1) -1.284313E-02 (1,10,3) 0.279132 (1,11,2) 0.563329
(1,10,3): (1,9,3) -2.51397 (1,10,2) -0.279132 (1,10,4) 1.63746 (1,11,3) 0.909566
(1,10,4): (1,9,4) -6.84283 (1,10,3) -1.63746 (1,10,5) 7.39332 (1,11,4) 0.717908
(1,10,5): (1,9,5) -20.5350 (1,10,4) -7.39332 (1,10,6) -0.996573 (1,11,5) -3.97941
(1,10,6): (1,9,6) -32.3700 (1,10,5) 0.996573 (1,10,7) 0.993922 (1,11,6) -2.56881
(1,10,7): (1,9,7) -20.5491 (1,10,6) -0.993922 (1,10,8) -7.40089 (1,11,7) -3.96651
(1,10,8): (1,9,8) -6.88623 (1,10,7) 7.40089 (1,10,9) -1.65517 (1,11,8) 0.754490
(1,10,9): (1,9,9) -2.63272 (1,10,8) 1.65517 (1,10,10) -0.305850 (1,11,9) 1.00070
(1,10,10): (1,9,10) -1.31282 (1,10,9) 0.305850 (1,11,10) 0.769582
(1,11,1): (1,10,1) -0.355999 (1,11,2) 0.219470 (1,12,1) 0.117962
(1,11,2): (1,10,2) -0.563329 (1,11,1) -0.219470 (1,11,3) 0.624413 (1,12,2) 0.122192
(1,11,3): (1,10,3) -0.909566 (1,11,2) -0.624413 (1,11,4) 1.44438 (1,12,3) 1.465673E-02
(1,11,4): (1,10,4) -0.717908 (1,11,3) -1.44438 (1,11,5) 2.56373 (1,12,4) -0.543060
(1,11,5): (1,10,5) 3.97941 (1,11,4) -2.56373 (1,11,6) 0.380223 (1,12,5) -2.02827
(1,11,6): (1,10,6) 2.56881 (1,11,5) -0.380223 (1,11,7) -0.370343 (1,12,6) -2.07732
(1,11,7): (1,10,7) 3.96651 (1,11,6) 0.370343 (1,11,8) -2.54656 (1,12,7) -2.02245
(1,11,8): (1,10,8) -0.754490 (1,11,7) 2.54656 (1,11,9) -1.40735 (1,12,8) -0.527420
(1,11,9): (1,10,9) -1.00070 (1,11,8) 1.40735 (1,11,10) -0.535937 (1,12,9) 4.843859E-02
(1,11,10): (1,10,10) -0.769582 (1,11,9) 0.535937 (1,12,10) 0.181296
(1,12,1): (1,11,1) -0.117962 (1,12,2) 0.223704 (1,13,1) -3.496793E-02
(1,12,2): (1,11,2) -0.122192 (1,12,1) -0.223704 (1,12,3) 0.516347 (1,13,2) -9.665160E-02
(1,12,3): (1,11,3) -1.465673E-02 (1,12,2) -0.516347 (1,12,4) 0.881884 (1,13,3) -0.276644
(1,12,4): (1,11,4) 0.543060 (1,12,3) -0.881884 (1,12,5) 1.07136 (1,13,4) -0.669007
(1,12,5): (1,11,5) 2.02827 (1,12,4) -1.07136 (1,12,6) 0.331815 (1,13,5) -1.24693
(1,12,6): (1,11,6) 2.07732 (1,12,5) -0.331815 (1,12,7) -0.316219 (1,13,6) -1.39348
(1,12,7): (1,11,7) 2.02245 (1,12,6) 0.316219 (1,12,8) -1.04447 (1,13,7) -1.24718
(1,12,8): (1,11,8) 0.527420 (1,12,7) 1.04447 (1,12,9) -0.826691 (1,13,8) -0.670394
(1,12,9): (1,11,9) -4.843859E-02 (1,12,8) 0.826691 (1,12,10) -0.402618 (1,13,9) -0.283235
(1,12,10): (1,11,10) -0.181296 (1,12,9) 0.402618 (1,13,10) -0.122838
(1,13,1): (1,12,1) 3.496793E-02 (1,13,2) 0.161943 (1,14,1) -7.995799E-02
(1,13,2): (1,12,2) 9.665160E-02 (1,13,1) -0.161943 (1,13,3) 0.335933 (1,14,2) -0.137924
(1,13,3): (1,12,3) 0.276644 (1,13,2) -0.335933 (1,13,4) 0.488724 (1,14,3) -0.271802
(1,13,4): (1,12,4) 0.669007 (1,13,3) -0.488724 (1,13,5) 0.494384 (1,14,4) -0.493548
(1,13,5): (1,12,5) 1.24693 (1,13,4) -0.494384 (1,13,6) 0.186683 (1,14,5) -0.743686
(1,13,6): (1,12,6) 1.39348 (1,13,5) -0.186683 (1,13,7) -0.171356 (1,14,6) -0.832487
(1,13,7): (1,12,7) 1.24718 (1,13,6) 0.171356 (1,13,8) -0.468778 (1,14,7) -0.746422
(1,13,8): (1,12,8) 0.670394 (1,13,7) 0.468778 (1,13,9) -0.438953 (1,14,8) -0.501461
(1,13,9): (1,12,9) 0.283235 (1,13,8) 0.438953 (1,13,10) -0.242035 (1,14,9) -0.291674
(1,13,10): (1,12,10) 0.122838 (1,13,9) 0.242035 (1,14,10) -0.185175
(1,14,1): (1,13,1) 7.995799E-02 (1,14,2) 0.103964 (1,15,1) -5.488753E-02
(1,14,2): (1,13,2) 0.137924 (1,14,1) -0.103964 (1,14,3) 0.201971 (1,15,2) -8.614766E-02
(1,14,3): (1,13,3) 0.271802 (1,14,2) -0.201971 (1,14,4) 0.266989 (1,15,3) -0.152231
(1,14,4): (1,13,4) 0.493548 (1,14,3) -0.266989 (1,14,5) 0.244842 (1,15,4) -0.249314
(1,14,5): (1,13,5) 0.743686 (1,14,4) -0.244842 (1,14,6) 9.842629E-02 (1,15,5) -0.346529
(1,14,6): (1,13,6) 0.832487 (1,14,5) -9.842629E-02 (1,14,7) -8.583117E-02 (1,15,6) -0.384481
(1,14,7): (1,13,7) 0.746422 (1,14,6) 8.583117E-02 (1,14,8) -0.224466 (1,15,7) -0.348672
(1,14,8): (1,13,8) 0.501461 (1,14,7) 0.224466 (1,14,9) -0.229294 (1,15,8) -0.255301
(1,14,9): (1,13,9) 0.291674 (1,14,8) 0.229294 (1,14,10) -0.135587 (1,15,9) -0.166377
(1,14,10): (1,13,10) 0.185175 (1,14,9) 0.135587 (1,15,10) -0.117082
(1,15,1): (1,14,1) 5.488753E-02 (1,15,2) 7.269807E-02
(1,15,2): (1,14,2) 8.614766E-02 (1,15,1) -7.269807E-02 (1,15,3) 0.135855
(1,15,3): (1,14,3) 0.152231 (1,15,2) -0.135855 (1,15,4) 0.169889
(1,15,4): (1,14,4) 0.249314 (1,15,3) -0.169889 (1,15,5) 0.147722
(1,15,5): (1,14,5) 0.346529 (1,15,4) -0.147722 (1,15,6) 6.057888E-02
(1,15,6): (1,14,6) 0.384481 (1,15,5) -6.057888E-02 (1,15,7) -5.012493E-02
(1,15,7): (1,14,7) 0.348672 (1,15,6) 5.012493E-02 (1,15,8) -0.131208
(1,15,8): (1,14,8) 0.255301 (1,15,7) 0.131208 (1,15,9) -0.140393
(1,15,9): (1,14,9) 0.166377 (1,15,8) 0.140393 (1,15,10) -8.630698E-02
(1,15,10): (1,14,10) 0.117082 (1,15,9) 8.630698E-02

 WEL PACKAGE (WEL-1) FLOW RATES   PERIOD      2   STEP       92
 ----------------------------------------------------------------------------------------
   NUMBER   CELLID                    RATE       NAME                                    
 ----------------------------------------------------------------------------------------
     1      (1,8,6)              -204.63220      WEL                                     
 ----------------------------------------------------------------------------------------




 DRN PACKAGE (DRN-0) FLOW RATES   PERIOD      2   STEP       92
 ----------------------------------------------------------------------------------------
   NUMBER   CELLID                    RATE       NAME                                    
 ----------------------------------------------------------------------------------------
     1      (1,1,1)               0.0000000      SURF                                    
     2      (1,1,2)               0.0000000      SURF                                    
     3      (1,1,3)               0.0000000      SURF                                    
     4      (1,1,4)               0.0000000      SURF                                    
     5      (1,1,5)               0.0000000      SURF                                    
     6      (1,1,6)               0.0000000      SURF                                    
     7      (1,1,7)               0.0000000      SURF                                    
     8      (1,1,8)               0.0000000      SURF                                    
     9      (1,1,9)               0.0000000      SURF                                    
     10     (1,1,10)              0.0000000      SURF                                    
     11     (1,2,1)               0.0000000      SURF                                    
     12     (1,2,2)               0.0000000      SURF                                    
     13     (1,2,3)               0.0000000      SURF                                    
     14     (1,2,4)               0.0000000      SURF                                    
     15     (1,2,5)               0.0000000      SURF                                    
     16     (1,2,6)               0.0000000      SURF                                    
     17     (1,2,7)               0.0000000      SURF                                    
     18     (1,2,8)               0.0000000      SURF                                    
     19     (1,2,9)               0.0000000      SURF                                    
     20     (1,2,10)              0.0000000      SURF                                    
     21     (1,3,1)               0.0000000      SURF                                    
     22     (1,3,2)               0.0000000      SURF                                    
     23     (1,3,3)               0.0000000      SURF                                    
     24     (1,3,4)               0.0000000      SURF                                    
     25     (1,3,5)               0.0000000      SURF                                    
     26     (1,3,6)               0.0000000      SURF                                    
     27     (1,3,7)               0.0000000      SURF                                    
     28     (1,3,8)               0.0000000      SURF                                    
     29     (1,3,9)               0.0000000      SURF                                    
     30     (1,3,10)              0.0000000      SURF                                    
     31     (1,4,1)               0.0000000      SURF                                    
     32     (1,4,2)               0.0000000      SURF                                    
     33     (1,4,3)               0.0000000      SURF                                    
     34     (1,4,4)               0.0000000      SURF                                    
     35     (1,4,5)               0.0000000      SURF                                    
     36     (1,4,6)               0.0000000      SURF                                    
     37     (1,4,7)               0.0000000      SURF                                    
     38     (1,4,8)               0.0000000      SURF                                    
     39     (1,4,9)               0.0000000      SURF                                    
     40     (1,4,10)              0.0000000      SURF                                    
     41     (1,5,1)               0.0000000      SURF                                    
     42     (1,5,2)               0.0000000      SURF                                    
     43     (1,5,3)               0.0000000      SURF                                    
     44     (1,5,4)               0.0000000      SURF                                    
     45     (1,5,5)               0.0000000      SURF                                    
     46     (1,5,6)               0.0000000      SURF                                    
     47     (1,5,7)               0.0000000      SURF                                    
     48     (1,5,8)               0.0000000      SURF                                    
     49     (1,5,9)               0.0000000      SURF                                    
     50     (1,5,10)              0.0000000      SURF                                    
     51     (1,6,1)               0.0000000      SURF                                    
     52     (1,6,2)               0.0000000      SURF                                    
     53     (1,6,3)               0.0000000      SURF                                    
     54     (1,6,4)               0.0000000      SURF                                    
     55     (1,6,5)              -6.56400598E-03 SURF                                    
     56     (1,6,6)               0.0000000      SURF                                    
     57     (1,6,7)              -3.17260856E-07 SURF                                    
     58     (1,6,8)               0.0000000      SURF                                    
     59     (1,6,9)               0.0000000      SURF                                    
     60     (1,6,10)              0.0000000      SURF                                    
     61     (1,7,1)               0.0000000      SURF                                    
     62     (1,7,2)               0.0000000      SURF                                    
     63     (1,7,3)               0.0000000      SURF                                    
     64     (1,7,4)               0.0000000      SURF                                    
     65     (1,7,5)               0.0000000      SURF                                    
     66     (1,7,6)               0.0000000      SURF                                    
     67     (1,7,7)               0.0000000      SURF                                    
     68     (1,7,8)               0.0000000      SURF                                    
     69     (1,7,9)               0.0000000      SURF                                    
     70     (1,7,10)              0.0000000      SURF                                    
     71     (1,8,1)               0.0000000      SURF                                    
     72     (1,8,2)               0.0000000      SURF                                    
     73     (1,8,3)               0.0000000      SURF                                    
     74     (1,8,4)               0.0000000      SURF                                    
     75     (1,8,5)               0.0000000      SURF                                    
     76     (1,8,6)               0.0000000      SURF                                    
     77     (1,8,7)               0.0000000      SURF                                    
     78     (1,8,8)               0.0000000      SURF                                    
     79     (1,8,9)               0.0000000      SURF                                    
     80     (1,8,10)              0.0000000      SURF                                    
     81     (1,9,1)               0.0000000      SURF                                    
     82     (1,9,2)               0.0000000      SURF                                    
     83     (1,9,3)               0.0000000      SURF                                    
     84     (1,9,4)               0.0000000      SURF                                    
     85     (1,9,5)               0.0000000      SURF                                    
     86     (1,9,6)               0.0000000      SURF                                    
     87     (1,9,7)               0.0000000      SURF                                    
     88     (1,9,8)               0.0000000      SURF                                    
     89     (1,9,9)               0.0000000      SURF                                    
     90     (1,9,10)              0.0000000      SURF                                    
     91     (1,10,1)              0.0000000      SURF                                    
     92     (1,10,2)              0.0000000      SURF                                    
     93     (1,10,3)              0.0000000      SURF                                    
     94     (1,10,4)              0.0000000      SURF                                    
     95     (1,10,5)              0.0000000      SURF                                    
     96     (1,10,6)              0.0000000      SURF                                    
     97     (1,10,7)              0.0000000      SURF                                    
     98     (1,10,8)              0.0000000      SURF                                    
     99     (1,10,9)              0.0000000      SURF                                    
    100     (1,10,10)             0.0000000      SURF                                    
    101     (1,11,1)              0.0000000      SURF                                    
    102     (1,11,2)              0.0000000      SURF                                    
    103     (1,11,3)              0.0000000      SURF                                    
    104     (1,11,4)              0.0000000      SURF                                    
    105     (1,11,5)              0.0000000      SURF                                    
    106     (1,11,6)              0.0000000      SURF                                    
    107     (1,11,7)              0.0000000      SURF                                    
    108     (1,11,8)              0.0000000      SURF                                    
    109     (1,11,9)              0.0000000      SURF                                    
    110     (1,11,10)             0.0000000      SURF                                    
    111     (1,12,1)              0.0000000      SURF                                    
    112     (1,12,2)              0.0000000      SURF                                    
    113     (1,12,3)              0.0000000      SURF                                    
    114     (1,12,4)              0.0000000      SURF                                    
    115     (1,12,5)              0.0000000      SURF                                    
    116     (1,12,6)              0.0000000      SURF                                    
    117     (1,12,7)              0.0000000      SURF                                    
    118     (1,12,8)              0.0000000      SURF                                    
    119     (1,12,9)              0.0000000      SURF                                    
    120     (1,12,10)             0.0000000      SURF                                    
    121     (1,13,1)              0.0000000      SURF                                    
    122     (1,13,2)              0.0000000      SURF                                    
    123     (1,13,3)              0.0000000      SURF                                    
    124     (1,13,4)              0.0000000      SURF                                    
    125     (1,13,5)              0.0000000      SURF                                    
    126     (1,13,6)              0.0000000      SURF                                    
    127     (1,13,7)              0.0000000      SURF                                    
    128     (1,13,8)              0.0000000      SURF                                    
    129     (1,13,9)              0.0000000      SURF                                    
    130     (1,13,10)             0.0000000      SURF                                    
    131     (1,14,1)              0.0000000      SURF                                    
    132     (1,14,2)              0.0000000      SURF                                    
    133     (1,14,3)              0.0000000      SURF                                    
    134     (1,14,4)              0.0000000      SURF                                    
    135     (1,14,5)              0.0000000      SURF                                    
    136     (1,14,6)              0.0000000      SURF                                    
    137     (1,14,7)              0.0000000      SURF                                    
    138     (1,14,8)              0.0000000      SURF                                    
    139     (1,14,9)              0.0000000      SURF                                    
    140     (1,14,10)             0.0000000      SURF                                    
    141     (1,15,1)              0.0000000      SURF                                    
    142     (1,15,2)              0.0000000      SURF                                    
    143     (1,15,3)              0.0000000      SURF                                    
    144     (1,15,4)              0.0000000      SURF                                    
    145     (1,15,5)              0.0000000      SURF                                    
    146     (1,15,6)              0.0000000      SURF                                    
    147     (1,15,7)              0.0000000      SURF                                    
    148     (1,15,8)              0.0000000      SURF                                    
    149     (1,15,9)              0.0000000      SURF                                    
    150     (1,15,10)             0.0000000      SURF                                    
 ----------------------------------------------------------------------------------------




 API PACKAGE (MAR) FLOW RATES   PERIOD      2   STEP       92
 -----------------------------------------------
   NUMBER   CELLID                    RATE      
 -----------------------------------------------
     1      (1,6,5)               35.884720     
     2      (1,6,6)               35.884720     
     3      (1,6,7)               35.884720     
     4      (1,10,5)              32.326014     
     5      (1,10,6)              32.326014     
     6      (1,10,7)              32.326014     
 -----------------------------------------------



1
  HEAD IN LAYER   1 AT END OF TIME STEP  92 IN STRESS PERIOD    2
  ---------------------------------------------------------------------------

            1           2           3           4           5           6           7           8           9          10
 ........................................................................................................................
   1   2.3808E-02  3.1499E-02  4.5805E-02  6.3609E-02  7.9055E-02  8.5421E-02  8.0282E-02  6.6718E-02  5.2178E-02  4.3224E-02
   2   2.9697E-02  4.0599E-02  6.1700E-02  8.9513E-02  0.1150      0.1253      0.1165      9.3269E-02  6.9575E-02  5.5561E-02
   3   3.8342E-02  5.5260E-02  9.0293E-02  0.1413      0.1930      0.2126      0.1947      0.1459      0.1003      7.5180E-02
   4   4.2503E-02  6.6094E-02  0.1206      0.2137      0.3271      0.3628      0.3289      0.2185      0.1313      8.8930E-02
   5   3.1082E-02  5.5171E-02  0.1236      0.2807      0.5539      0.5993      0.5551      0.2839      0.1311      7.2430E-02
   6  -4.9489E-03 -7.7917E-04  3.7174E-02  0.2296       1.000      0.9279       1.000      0.2292      3.5523E-02 -4.0392E-03
   7  -5.6998E-02 -0.1039     -0.2213     -0.4666     -0.9730      -2.168     -0.9745     -0.4715     -0.2353     -0.1394    
   8  -8.4335E-02 -0.1631     -0.3883     -0.9859      -2.736      -9.252      -2.739     -0.9934     -0.4088     -0.2161    
   9  -5.9565E-02 -0.1082     -0.2311     -0.4915      -1.029      -2.236      -1.031     -0.4968     -0.2458     -0.1449    
  10  -9.3671E-03 -8.0817E-03  1.9776E-02  0.1806      0.8613      0.7696      0.8611      0.1797      1.7066E-02 -1.3467E-02
  11   2.6140E-02  4.7982E-02  0.1097      0.2507      0.4949      0.5310      0.4959      0.2532      0.1160      6.3009E-02
  12   3.7892E-02  6.0128E-02  0.1112      0.1977      0.3017      0.3338      0.3032      0.2018      0.1208      8.0993E-02
  13   3.4408E-02  5.0521E-02  8.3835E-02  0.1321      0.1806      0.1989      0.1821      0.1361      9.2789E-02  6.8808E-02
  14   2.6440E-02  3.6798E-02  5.6881E-02  8.3359E-02  0.1076      0.1173      0.1088      8.6622E-02  6.3890E-02  5.0417E-02
  15   2.0965E-02  2.8215E-02  4.1744E-02  5.8634E-02  7.3298E-02  7.9309E-02  7.4335E-02  6.1312E-02  4.7358E-02  3.8768E-02

 HEAD WILL BE SAVED ON UNIT 1100 AT END OF TIME STEP   92, STRESS PERIOD    2


  VOLUME BUDGET FOR ENTIRE MODEL AT END OF TIME STEP   92, STRESS PERIOD   2
  ---------------------------------------------------------------------------------------------------

     CUMULATIVE VOLUME      L**3       RATES FOR THIS TIME STEP      L**3/T          PACKAGE NAME    
     ------------------                 ------------------------                     ----------------

           IN:                                      IN:
           ---                                      ---
              STO-SS =          25.7079                STO-SS =       7.5109E-03     STORAGE                          
              STO-SY =       63058.4125                STO-SY =          15.5412     STORAGE                          
                 WEL =           0.0000                   WEL =           0.0000     WEL-1                            
                 DRN =           0.0000                   DRN =           0.0000     DRN-0                            
                 API =      188265.0879                   API =         204.6322     MAR                              
                 CHD =       2.0279E-08                   CHD =           0.0000     CHD_0                            

            TOTAL IN =      251349.2082              TOTAL IN =         220.1809

          OUT:                                     OUT:
          ----                                     ----
              STO-SS =          22.2534                STO-SS =       7.8611E-03     STORAGE                          
              STO-SY =       43492.9947                STO-SY =          15.5343     STORAGE                          
                 WEL =      207833.8941                   WEL =         204.6322     WEL-1                            
                 DRN =       6.5943E-02                   DRN =       6.5643E-03     DRN-0                            
                 API =           0.0000                   API =           0.0000     MAR                              
                 CHD =       2.0705E-08                   CHD =           0.0000     CHD_0                            

           TOTAL OUT =      251349.2082             TOTAL OUT =         220.1809

            IN - OUT =      -9.1773E-07              IN - OUT =       2.0047E-09

 PERCENT DISCREPANCY =          -0.00     PERCENT DISCREPANCY =           0.00




         TIME SUMMARY AT END OF TIME STEP   92 IN STRESS PERIOD    2
                    SECONDS     MINUTES      HOURS       DAYS        YEARS
                    -----------------------------------------------------------
   TIME STEP LENGTH 8.64000E+05  14400.      240.00      10.000     2.73785E-02
 STRESS PERIOD TIME 7.94880E+07 1.32480E+06  22080.      920.00      2.5188    
         TOTAL TIME 7.95744E+07 1.32624E+06  22104.      921.00      2.5216    


end timestep


start timestep kper="2" kstp="93" mode="normal"

 UBDSV1 SAVING           STO-SS ON UNIT   1099 AT TIME STEP     93, STRESS PERIOD      2
 UBDSV1 SAVING           STO-SY ON UNIT   1099 AT TIME STEP     93, STRESS PERIOD      2
 UBDSV1 SAVING     FLOW-JA-FACE ON UNIT   1099 AT TIME STEP     93, STRESS PERIOD      2
 UBDSV06 SAVING       DATA-SPDIS IN MODEL GWF              PACKAGE NPF             CONNECTED TO MODEL GWF              PACKAGE NPF              ON UNIT   1099 AT TIME STEP     93, STRESS PERIOD      2
 UBDSV06 SAVING              WEL IN MODEL GWF              PACKAGE GWF             CONNECTED TO MODEL GWF              PACKAGE WEL-1            ON UNIT   1099 AT TIME STEP     93, STRESS PERIOD      2
 UBDSV06 SAVING              DRN IN MODEL GWF              PACKAGE GWF             CONNECTED TO MODEL GWF              PACKAGE DRN-0            ON UNIT   1099 AT TIME STEP     93, STRESS PERIOD      2
 UBDSV06 SAVING              API IN MODEL GWF              PACKAGE GWF             CONNECTED TO MODEL GWF              PACKAGE MAR              ON UNIT   1099 AT TIME STEP     93, STRESS PERIOD      2
 UBDSV06 SAVING              CHD IN MODEL GWF              PACKAGE GWF             CONNECTED TO MODEL GWF              PACKAGE CHD_0            ON UNIT   1099 AT TIME STEP     93, STRESS PERIOD      2

    CALCULATED INTERCELL FLOW FOR PERIOD 2 STEP 93
(1,1,1): (1,1,2) 7.823581E-02 (1,2,1) 5.908799E-02
(1,1,2): (1,1,1) -7.823581E-02 (1,1,3) 0.145580 (1,2,2) 9.138985E-02
(1,1,3): (1,1,2) -0.145580 (1,1,4) 0.181303 (1,2,3) 0.159982
(1,1,4): (1,1,3) -0.181303 (1,1,5) 0.157411 (1,2,4) 0.261486
(1,1,5): (1,1,4) -0.157411 (1,1,6) 6.499582E-02 (1,2,5) 0.363999
(1,1,6): (1,1,5) -6.499582E-02 (1,1,7) -5.215661E-02 (1,2,6) 0.404259
(1,1,7): (1,1,6) 5.215661E-02 (1,1,8) -0.137873 (1,2,7) 0.366431
(1,1,8): (1,1,7) 0.137873 (1,1,9) -0.147709 (1,2,8) 0.268106
(1,1,9): (1,1,8) 0.147709 (1,1,10) -9.087676E-02 (1,2,9) 0.175213
(1,1,10): (1,1,9) 9.087676E-02 (1,2,10) 0.124049
(1,2,1): (1,1,1) -5.908799E-02 (1,2,2) 0.110544 (1,3,1) 8.612381E-02
(1,2,2): (1,1,2) -9.138985E-02 (1,2,1) -0.110544 (1,2,3) 0.214209 (1,3,2) 0.146673
(1,2,3): (1,1,3) -0.159982 (1,2,2) -0.214209 (1,2,4) 0.282827 (1,3,3) 0.287697
(1,2,4): (1,1,4) -0.261486 (1,2,3) -0.282827 (1,2,5) 0.259820 (1,3,4) 0.523973
(1,2,5): (1,1,5) -0.363999 (1,2,4) -0.259820 (1,2,6) 0.105140 (1,3,5) 0.793796
(1,2,6): (1,1,6) -0.404259 (1,2,5) -0.105140 (1,2,7) -8.986938E-02 (1,3,6) 0.890744
(1,2,7): (1,1,7) -0.366431 (1,2,6) 8.986938E-02 (1,2,8) -0.236073 (1,3,7) 0.796932
(1,2,8): (1,1,8) -0.268106 (1,2,7) 0.236073 (1,2,9) -0.240577 (1,3,8) 0.532753
(1,2,9): (1,1,9) -0.175213 (1,2,8) 0.240577 (1,2,10) -0.142025 (1,3,9) 0.309090
(1,2,10): (1,1,10) -0.124049 (1,2,9) 0.142025 (1,3,10) 0.196600
(1,3,1): (1,2,1) -8.612381E-02 (1,3,2) 0.171108 (1,4,1) 3.953577E-02
(1,3,2): (1,2,2) -0.146673 (1,3,1) -0.171108 (1,3,3) 0.355327 (1,4,2) 0.106517
(1,3,3): (1,2,3) -0.287697 (1,3,2) -0.355327 (1,3,4) 0.519092 (1,4,3) 0.303653
(1,3,4): (1,2,4) -0.523973 (1,3,3) -0.519092 (1,3,5) 0.528962 (1,4,4) 0.737333
(1,3,5): (1,2,5) -0.793796 (1,3,4) -0.528962 (1,3,6) 0.201457 (1,4,5) 1.38230
(1,3,6): (1,2,6) -0.890744 (1,3,5) -0.201457 (1,3,7) -0.183054 (1,4,6) 1.55380
(1,3,7): (1,2,7) -0.796932 (1,3,6) 0.183054 (1,3,8) -0.499504 (1,4,7) 1.38276
(1,3,8): (1,2,8) -0.532753 (1,3,7) 0.499504 (1,3,9) -0.464091 (1,4,8) 0.739163
(1,3,9): (1,2,9) -0.309090 (1,3,8) 0.464091 (1,3,10) -0.254455 (1,4,9) 0.311164
(1,3,10): (1,2,10) -0.196600 (1,3,9) 0.254455 (1,4,10) 0.135161
(1,4,1): (1,3,1) -3.953577E-02 (1,4,2) 0.238176 (1,5,1) -0.118975
(1,4,2): (1,3,2) -0.106517 (1,4,1) -0.238176 (1,4,3) 0.552942 (1,5,2) -0.114779
(1,4,3): (1,3,3) -0.303653 (1,4,2) -0.552942 (1,4,4) 0.953665 (1,5,3) 2.550288E-02
(1,4,4): (1,3,4) -0.737333 (1,4,3) -0.953665 (1,4,5) 1.17268 (1,5,4) 0.682619
(1,4,5): (1,3,5) -1.38230 (1,4,4) -1.17268 (1,4,6) 0.371120 (1,5,5) 2.38916
(1,4,6): (1,3,6) -1.55380 (1,4,5) -0.371120 (1,4,7) -0.352233 (1,5,6) 2.50201
(1,4,7): (1,3,7) -1.38276 (1,4,6) 0.352233 (1,4,8) -1.14166 (1,5,7) 2.38306
(1,4,8): (1,3,8) -0.739163 (1,4,7) 1.14166 (1,4,9) -0.892716 (1,5,8) 0.666335
(1,4,9): (1,3,9) -0.311164 (1,4,8) 0.892716 (1,4,10) -0.430663 (1,5,9) -9.039349E-03
(1,4,10): (1,3,10) -0.135161 (1,4,9) 0.430663 (1,5,10) -0.173162
(1,5,1): (1,4,1) 0.118975 (1,5,2) 0.242377 (1,6,1) -0.367015
(1,5,2): (1,4,2) 0.114779 (1,5,1) -0.242377 (1,5,3) 0.694013 (1,6,2) -0.568926
(1,5,3): (1,4,3) -2.550288E-02 (1,5,2) -0.694013 (1,5,4) 1.61658 (1,6,3) -0.882607
(1,5,4): (1,4,4) -0.682619 (1,5,3) -1.61658 (1,5,5) 2.88676 (1,6,4) -0.532585
(1,5,5): (1,4,5) -2.38916 (1,5,4) -2.88676 (1,5,6) 0.482133 (1,6,5) 4.90091
(1,5,6): (1,4,6) -2.50201 (1,5,5) -0.482133 (1,5,7) -0.469210 (1,6,6) 3.58647
(1,5,7): (1,4,7) -2.38306 (1,5,6) 0.469210 (1,5,8) -2.86575 (1,6,7) 4.88750
(1,5,8): (1,4,8) -0.666335 (1,5,7) 2.86575 (1,5,9) -1.57389 (1,6,8) -0.571206
(1,5,9): (1,4,9) 9.039349E-03 (1,5,8) 1.57389 (1,5,10) -0.595463 (1,6,9) -0.977101
(1,5,10): (1,4,10) 0.173162 (1,5,9) 0.595463 (1,6,10) -0.778962
(1,6,1): (1,5,1) 0.367015 (1,6,2) 4.111572E-02 (1,7,1) -0.525191
(1,6,2): (1,5,2) 0.568926 (1,6,1) -4.111572E-02 (1,6,3) 0.380902 (1,7,2) -1.03730
(1,6,3): (1,5,3) 0.882607 (1,6,2) -0.380902 (1,6,4) 1.97034 (1,7,3) -2.60101
(1,6,4): (1,5,4) 0.532585 (1,6,3) -1.97034 (1,6,5) 8.47936 (1,7,4) -7.12960
(1,6,5): (1,5,5) -4.90091 (1,6,4) -8.47936 (1,6,6) -0.790526 (1,7,5) -21.7128
(1,6,6): (1,5,6) -3.58647 (1,6,5) 0.790526 (1,6,7) 0.790525 (1,7,6) -33.8406
(1,6,7): (1,5,7) -4.88750 (1,6,6) -0.790525 (1,6,8) -8.48484 (1,7,7) -21.7291
(1,6,8): (1,5,8) 0.571206 (1,6,7) 8.48484 (1,6,9) -1.98377 (1,7,8) -7.17633
(1,6,9): (1,5,9) 0.977101 (1,6,8) 1.98377 (1,6,10) -0.398044 (1,7,9) -2.72582
(1,6,10): (1,5,10) 0.778962 (1,6,9) 0.398044 (1,7,10) -1.36084
(1,7,1): (1,6,1) 0.525191 (1,7,2) -0.468105 (1,8,1) -0.273973
(1,7,2): (1,6,2) 1.03730 (1,7,1) 0.468105 (1,7,3) -1.16224 (1,8,2) -0.588105
(1,7,3): (1,6,3) 2.60101 (1,7,2) 1.16224 (1,7,4) -2.39755 (1,8,3) -1.63682
(1,7,4): (1,6,4) 7.12960 (1,7,3) 2.39755 (1,7,5) -4.82374 (1,8,4) -4.95617
(1,7,5): (1,6,5) 21.7128 (1,7,4) 4.82374 (1,7,6) -10.7829 (1,8,5) -15.9229
(1,7,6): (1,6,6) 33.8406 (1,7,5) 10.7829 (1,7,7) 10.7677 (1,8,6) -55.4790
(1,7,7): (1,6,7) 21.7291 (1,7,6) -10.7677 (1,7,8) 4.78669 (1,8,7) -15.9290
(1,7,8): (1,6,8) 7.17633 (1,7,7) -4.78669 (1,7,9) 2.30418 (1,8,8) -4.97801
(1,7,9): (1,6,9) 2.72582 (1,7,8) -2.30418 (1,7,10) 0.944692 (1,8,9) -1.69901
(1,7,10): (1,6,10) 1.36084 (1,7,9) -0.944692 (1,8,10) -0.760072
(1,8,1): (1,7,1) 0.273973 (1,8,2) -0.782859 (1,9,1) 0.247863
(1,8,2): (1,7,2) 0.588105 (1,8,1) 0.782859 (1,8,3) -2.21722 (1,9,2) 0.544250
(1,8,3): (1,7,3) 1.63682 (1,8,2) 2.21722 (1,8,4) -5.74433 (1,9,3) 1.53527
(1,8,4): (1,7,4) 4.95617 (1,8,3) 5.74433 (1,8,5) -15.7732 (1,9,4) 4.69755
(1,8,5): (1,7,5) 15.9229 (1,8,4) 15.7732 (1,8,6) -47.3094 (1,9,5) 15.3018
(1,8,6): (1,7,6) 55.4790 (1,8,5) 47.3094 (1,8,7) 47.2756 (1,9,6) 54.4410
(1,8,7): (1,7,7) 15.9290 (1,8,6) -47.2756 (1,8,8) 15.7127 (1,9,7) 15.3063
(1,8,8): (1,7,8) 4.97801 (1,8,7) -15.7127 (1,8,9) 5.60478 (1,9,8) 4.71606
(1,8,9): (1,7,9) 1.69901 (1,8,8) -5.60478 (1,8,10) 1.88545 (1,9,9) 1.59115
(1,8,10): (1,7,10) 0.760072 (1,8,9) -1.88545 (1,9,10) 0.703382
(1,9,1): (1,8,1) -0.247863 (1,9,2) -0.485751 (1,10,1) 0.506165
(1,9,2): (1,8,2) -0.544250 (1,9,1) 0.485751 (1,9,3) -1.21922 (1,10,2) 1.00547
(1,9,3): (1,8,3) -1.53527 (1,9,2) 1.21922 (1,9,4) -2.54714 (1,10,3) 2.51865
(1,9,4): (1,8,4) -4.69755 (1,9,3) 2.54714 (1,9,5) -5.11559 (1,10,4) 6.84443
(1,9,5): (1,8,5) -15.3018 (1,9,4) 5.11559 (1,9,6) -10.8218 (1,10,5) 20.5249
(1,9,6): (1,8,6) -54.4410 (1,9,5) 10.8218 (1,9,7) 10.8051 (1,10,6) 32.3525
(1,9,7): (1,8,7) -15.3063 (1,9,6) -10.8051 (1,9,8) 5.07656 (1,10,7) 20.5392
(1,9,8): (1,8,8) -4.71606 (1,9,7) -5.07656 (1,9,9) 2.45050 (1,10,8) 6.88851
(1,9,9): (1,8,9) -1.59115 (1,9,8) -2.45050 (1,9,10) 0.994960 (1,10,9) 2.63867
(1,9,10): (1,8,10) -0.703382 (1,9,9) -0.994960 (1,10,10) 1.31971
(1,10,1): (1,9,1) -0.506165 (1,10,2) 1.096856E-02 (1,11,1) 0.361653
(1,10,2): (1,9,2) -1.00547 (1,10,1) -1.096856E-02 (1,10,3) 0.275394 (1,11,2) 0.569979
(1,10,3): (1,9,3) -2.51865 (1,10,2) -0.275394 (1,10,4) 1.63101 (1,11,3) 0.918000
(1,10,4): (1,9,4) -6.84443 (1,10,3) -1.63101 (1,10,5) 7.38024 (1,11,4) 0.729227
(1,10,5): (1,9,5) -20.5249 (1,10,4) -7.38024 (1,10,6) -0.998665 (1,11,5) -3.96006
(1,10,6): (1,9,6) -32.3525 (1,10,5) 0.998665 (1,10,7) 0.995672 (1,11,6) -2.54902
(1,10,7): (1,9,7) -20.5392 (1,10,6) -0.995672 (1,10,8) -7.38839 (1,11,7) -3.94681
(1,10,8): (1,9,8) -6.88851 (1,10,7) 7.38839 (1,10,9) -1.64971 (1,11,8) 0.766619
(1,10,9): (1,9,9) -2.63867 (1,10,8) 1.64971 (1,10,10) -0.303582 (1,11,9) 1.01067
(1,10,10): (1,9,10) -1.31971 (1,10,9) 0.303582 (1,11,10) 0.778715
(1,11,1): (1,10,1) -0.361653 (1,11,2) 0.218572 (1,12,1) 0.122451
(1,11,2): (1,10,2) -0.569979 (1,11,1) -0.218572 (1,11,3) 0.622419 (1,12,2) 0.127705
(1,11,3): (1,10,3) -0.918000 (1,11,2) -0.622419 (1,11,4) 1.44087 (1,12,3) 2.212936E-02
(1,11,4): (1,10,4) -0.729227 (1,11,3) -1.44087 (1,11,5) 2.55873 (1,12,4) -0.532645
(1,11,5): (1,10,5) 3.96006 (1,11,4) -2.55873 (1,11,6) 0.378774 (1,12,5) -2.01389
(1,11,6): (1,10,6) 2.54902 (1,11,5) -0.378774 (1,11,7) -0.368893 (1,12,6) -2.06179
(1,11,7): (1,10,7) 3.94681 (1,11,6) 0.368893 (1,11,8) -2.54164 (1,12,7) -2.00781
(1,11,8): (1,10,8) -0.766619 (1,11,7) 2.54164 (1,11,9) -1.40410 (1,12,8) -0.516366
(1,11,9): (1,10,9) -1.01067 (1,11,8) 1.40410 (1,11,10) -0.534472 (1,12,9) 5.713654E-02
(1,11,10): (1,10,10) -0.778715 (1,11,9) 0.534472 (1,12,10) 0.188867
(1,12,1): (1,11,1) -0.122451 (1,12,2) 0.223831 (1,13,1) -3.259951E-02
(1,12,2): (1,11,2) -0.127705 (1,12,1) -0.223831 (1,12,3) 0.516329 (1,13,2) -9.364196E-02
(1,12,3): (1,11,3) -2.212936E-02 (1,12,2) -0.516329 (1,12,4) 0.881304 (1,13,3) -0.272394
(1,12,4): (1,11,4) 0.532645 (1,12,3) -0.881304 (1,12,5) 1.07023 (1,13,4) -0.663000
(1,12,5): (1,11,5) 2.01389 (1,12,4) -1.07023 (1,12,6) 0.331493 (1,13,5) -1.23902
(1,12,6): (1,11,6) 2.06179 (1,12,5) -0.331493 (1,12,7) -0.315632 (1,13,6) -1.38486
(1,12,7): (1,11,7) 2.00781 (1,12,6) 0.315632 (1,12,8) -1.04304 (1,13,7) -1.23914
(1,12,8): (1,11,8) 0.516366 (1,12,7) 1.04304 (1,12,9) -0.825778 (1,13,8) -0.664054
(1,12,9): (1,11,9) -5.713654E-02 (1,12,8) 0.825778 (1,12,10) -0.402295 (1,13,9) -0.278328
(1,12,10): (1,11,10) -0.188867 (1,12,9) 0.402295 (1,13,10) -0.118686
(1,13,1): (1,12,1) 3.259951E-02 (1,13,2) 0.162711 (1,14,1) -7.929365E-02
(1,13,2): (1,12,2) 9.364196E-02 (1,13,1) -0.162711 (1,13,3) 0.337152 (1,14,2) -0.137004
(1,13,3): (1,12,3) 0.272394 (1,13,2) -0.337152 (1,13,4) 0.489884 (1,14,3) -0.270377
(1,13,4): (1,12,4) 0.663000 (1,13,3) -0.489884 (1,13,5) 0.495109 (1,14,4) -0.491413
(1,13,5): (1,12,5) 1.23902 (1,13,4) -0.495109 (1,13,6) 0.187057 (1,14,5) -0.740832
(1,13,6): (1,12,6) 1.38486 (1,13,5) -0.187057 (1,13,7) -0.171332 (1,14,6) -0.829347
(1,13,7): (1,12,7) 1.23914 (1,13,6) 0.171332 (1,13,8) -0.469005 (1,14,7) -0.743537
(1,13,8): (1,12,8) 0.664054 (1,13,7) 0.469005 (1,13,9) -0.439456 (1,14,8) -0.499238
(1,13,9): (1,12,9) 0.278328 (1,13,8) 0.439456 (1,13,10) -0.242461 (1,14,9) -0.290057
(1,13,10): (1,12,10) 0.118686 (1,13,9) 0.242461 (1,14,10) -0.183887
(1,14,1): (1,13,1) 7.929365E-02 (1,14,2) 0.104986 (1,15,1) -5.492404E-02
(1,14,2): (1,13,2) 0.137004 (1,14,1) -0.104986 (1,14,3) 0.203691 (1,15,2) -8.613060E-02
(1,14,3): (1,13,3) 0.270377 (1,14,2) -0.203691 (1,14,4) 0.268852 (1,15,3) -0.152099
(1,14,4): (1,13,4) 0.491413 (1,14,3) -0.268852 (1,14,5) 0.246274 (1,15,4) -0.249009
(1,14,5): (1,13,5) 0.740832 (1,14,4) -0.246274 (1,14,6) 9.908057E-02 (1,15,5) -0.346045
(1,14,6): (1,13,6) 0.829347 (1,14,5) -9.908057E-02 (1,14,7) -8.605618E-02 (1,15,6) -0.383928
(1,14,7): (1,13,7) 0.743537 (1,14,6) 8.605618E-02 (1,14,8) -0.225347 (1,15,7) -0.348195
(1,14,8): (1,13,8) 0.499238 (1,14,7) 0.225347 (1,14,9) -0.230396 (1,15,8) -0.255006
(1,14,9): (1,13,9) 0.290057 (1,14,8) 0.230396 (1,14,10) -0.136340 (1,15,9) -0.166250
(1,14,10): (1,13,10) 0.183887 (1,14,9) 0.136340 (1,15,10) -0.117043
(1,15,1): (1,14,1) 5.492404E-02 (1,15,2) 7.377347E-02
(1,15,2): (1,14,2) 8.613060E-02 (1,15,1) -7.377347E-02 (1,15,3) 0.137689
(1,15,3): (1,14,3) 0.152099 (1,15,2) -0.137689 (1,15,4) 0.171923
(1,15,4): (1,14,4) 0.249009 (1,15,3) -0.171923 (1,15,5) 0.149332
(1,15,5): (1,14,5) 0.346045 (1,15,4) -0.149332 (1,15,6) 6.130170E-02
(1,15,6): (1,14,6) 0.383928 (1,15,5) -6.130170E-02 (1,15,7) -5.042631E-02
(1,15,7): (1,14,7) 0.348195 (1,15,6) 5.042631E-02 (1,15,8) -0.132269
(1,15,8): (1,14,8) 0.255006 (1,15,7) 0.132269 (1,15,9) -0.141660
(1,15,9): (1,14,9) 0.166250 (1,15,8) 0.141660 (1,15,10) -8.714852E-02
(1,15,10): (1,14,10) 0.117043 (1,15,9) 8.714852E-02

 WEL PACKAGE (WEL-1) FLOW RATES   PERIOD      2   STEP       93
 ----------------------------------------------------------------------------------------
   NUMBER   CELLID                    RATE       NAME                                    
 ----------------------------------------------------------------------------------------
     1      (1,8,6)              -204.55395      WEL                                     
 ----------------------------------------------------------------------------------------




 DRN PACKAGE (DRN-0) FLOW RATES   PERIOD      2   STEP       93
 ----------------------------------------------------------------------------------------
   NUMBER   CELLID                    RATE       NAME                                    
 ----------------------------------------------------------------------------------------
     1      (1,1,1)               0.0000000      SURF                                    
     2      (1,1,2)               0.0000000      SURF                                    
     3      (1,1,3)               0.0000000      SURF                                    
     4      (1,1,4)               0.0000000      SURF                                    
     5      (1,1,5)               0.0000000      SURF                                    
     6      (1,1,6)               0.0000000      SURF                                    
     7      (1,1,7)               0.0000000      SURF                                    
     8      (1,1,8)               0.0000000      SURF                                    
     9      (1,1,9)               0.0000000      SURF                                    
     10     (1,1,10)              0.0000000      SURF                                    
     11     (1,2,1)               0.0000000      SURF                                    
     12     (1,2,2)               0.0000000      SURF                                    
     13     (1,2,3)               0.0000000      SURF                                    
     14     (1,2,4)               0.0000000      SURF                                    
     15     (1,2,5)               0.0000000      SURF                                    
     16     (1,2,6)               0.0000000      SURF                                    
     17     (1,2,7)               0.0000000      SURF                                    
     18     (1,2,8)               0.0000000      SURF                                    
     19     (1,2,9)               0.0000000      SURF                                    
     20     (1,2,10)              0.0000000      SURF                                    
     21     (1,3,1)               0.0000000      SURF                                    
     22     (1,3,2)               0.0000000      SURF                                    
     23     (1,3,3)               0.0000000      SURF                                    
     24     (1,3,4)               0.0000000      SURF                                    
     25     (1,3,5)               0.0000000      SURF                                    
     26     (1,3,6)               0.0000000      SURF                                    
     27     (1,3,7)               0.0000000      SURF                                    
     28     (1,3,8)               0.0000000      SURF                                    
     29     (1,3,9)               0.0000000      SURF                                    
     30     (1,3,10)              0.0000000      SURF                                    
     31     (1,4,1)               0.0000000      SURF                                    
     32     (1,4,2)               0.0000000      SURF                                    
     33     (1,4,3)               0.0000000      SURF                                    
     34     (1,4,4)               0.0000000      SURF                                    
     35     (1,4,5)               0.0000000      SURF                                    
     36     (1,4,6)               0.0000000      SURF                                    
     37     (1,4,7)               0.0000000      SURF                                    
     38     (1,4,8)               0.0000000      SURF                                    
     39     (1,4,9)               0.0000000      SURF                                    
     40     (1,4,10)              0.0000000      SURF                                    
     41     (1,5,1)               0.0000000      SURF                                    
     42     (1,5,2)               0.0000000      SURF                                    
     43     (1,5,3)               0.0000000      SURF                                    
     44     (1,5,4)               0.0000000      SURF                                    
     45     (1,5,5)               0.0000000      SURF                                    
     46     (1,5,6)               0.0000000      SURF                                    
     47     (1,5,7)               0.0000000      SURF                                    
     48     (1,5,8)               0.0000000      SURF                                    
     49     (1,5,9)               0.0000000      SURF                                    
     50     (1,5,10)              0.0000000      SURF                                    
     51     (1,6,1)               0.0000000      SURF                                    
     52     (1,6,2)               0.0000000      SURF                                    
     53     (1,6,3)               0.0000000      SURF                                    
     54     (1,6,4)               0.0000000      SURF                                    
     55     (1,6,5)              -8.38697287E-03 SURF                                    
     56     (1,6,6)               0.0000000      SURF                                    
     57     (1,6,7)              -3.16940714E-07 SURF                                    
     58     (1,6,8)               0.0000000      SURF                                    
     59     (1,6,9)               0.0000000      SURF                                    
     60     (1,6,10)              0.0000000      SURF                                    
     61     (1,7,1)               0.0000000      SURF                                    
     62     (1,7,2)               0.0000000      SURF                                    
     63     (1,7,3)               0.0000000      SURF                                    
     64     (1,7,4)               0.0000000      SURF                                    
     65     (1,7,5)               0.0000000      SURF                                    
     66     (1,7,6)               0.0000000      SURF                                    
     67     (1,7,7)               0.0000000      SURF                                    
     68     (1,7,8)               0.0000000      SURF                                    
     69     (1,7,9)               0.0000000      SURF                                    
     70     (1,7,10)              0.0000000      SURF                                    
     71     (1,8,1)               0.0000000      SURF                                    
     72     (1,8,2)               0.0000000      SURF                                    
     73     (1,8,3)               0.0000000      SURF                                    
     74     (1,8,4)               0.0000000      SURF                                    
     75     (1,8,5)               0.0000000      SURF                                    
     76     (1,8,6)               0.0000000      SURF                                    
     77     (1,8,7)               0.0000000      SURF                                    
     78     (1,8,8)               0.0000000      SURF                                    
     79     (1,8,9)               0.0000000      SURF                                    
     80     (1,8,10)              0.0000000      SURF                                    
     81     (1,9,1)               0.0000000      SURF                                    
     82     (1,9,2)               0.0000000      SURF                                    
     83     (1,9,3)               0.0000000      SURF                                    
     84     (1,9,4)               0.0000000      SURF                                    
     85     (1,9,5)               0.0000000      SURF                                    
     86     (1,9,6)               0.0000000      SURF                                    
     87     (1,9,7)               0.0000000      SURF                                    
     88     (1,9,8)               0.0000000      SURF                                    
     89     (1,9,9)               0.0000000      SURF                                    
     90     (1,9,10)              0.0000000      SURF                                    
     91     (1,10,1)              0.0000000      SURF                                    
     92     (1,10,2)              0.0000000      SURF                                    
     93     (1,10,3)              0.0000000      SURF                                    
     94     (1,10,4)              0.0000000      SURF                                    
     95     (1,10,5)              0.0000000      SURF                                    
     96     (1,10,6)              0.0000000      SURF                                    
     97     (1,10,7)              0.0000000      SURF                                    
     98     (1,10,8)              0.0000000      SURF                                    
     99     (1,10,9)              0.0000000      SURF                                    
    100     (1,10,10)             0.0000000      SURF                                    
    101     (1,11,1)              0.0000000      SURF                                    
    102     (1,11,2)              0.0000000      SURF                                    
    103     (1,11,3)              0.0000000      SURF                                    
    104     (1,11,4)              0.0000000      SURF                                    
    105     (1,11,5)              0.0000000      SURF                                    
    106     (1,11,6)              0.0000000      SURF                                    
    107     (1,11,7)              0.0000000      SURF                                    
    108     (1,11,8)              0.0000000      SURF                                    
    109     (1,11,9)              0.0000000      SURF                                    
    110     (1,11,10)             0.0000000      SURF                                    
    111     (1,12,1)              0.0000000      SURF                                    
    112     (1,12,2)              0.0000000      SURF                                    
    113     (1,12,3)              0.0000000      SURF                                    
    114     (1,12,4)              0.0000000      SURF                                    
    115     (1,12,5)              0.0000000      SURF                                    
    116     (1,12,6)              0.0000000      SURF                                    
    117     (1,12,7)              0.0000000      SURF                                    
    118     (1,12,8)              0.0000000      SURF                                    
    119     (1,12,9)              0.0000000      SURF                                    
    120     (1,12,10)             0.0000000      SURF                                    
    121     (1,13,1)              0.0000000      SURF                                    
    122     (1,13,2)              0.0000000      SURF                                    
    123     (1,13,3)              0.0000000      SURF                                    
    124     (1,13,4)              0.0000000      SURF                                    
    125     (1,13,5)              0.0000000      SURF                                    
    126     (1,13,6)              0.0000000      SURF                                    
    127     (1,13,7)              0.0000000      SURF                                    
    128     (1,13,8)              0.0000000      SURF                                    
    129     (1,13,9)              0.0000000      SURF                                    
    130     (1,13,10)             0.0000000      SURF                                    
    131     (1,14,1)              0.0000000      SURF                                    
    132     (1,14,2)              0.0000000      SURF                                    
    133     (1,14,3)              0.0000000      SURF                                    
    134     (1,14,4)              0.0000000      SURF                                    
    135     (1,14,5)              0.0000000      SURF                                    
    136     (1,14,6)              0.0000000      SURF                                    
    137     (1,14,7)              0.0000000      SURF                                    
    138     (1,14,8)              0.0000000      SURF                                    
    139     (1,14,9)              0.0000000      SURF                                    
    140     (1,14,10)             0.0000000      SURF                                    
    141     (1,15,1)              0.0000000      SURF                                    
    142     (1,15,2)              0.0000000      SURF                                    
    143     (1,15,3)              0.0000000      SURF                                    
    144     (1,15,4)              0.0000000      SURF                                    
    145     (1,15,5)              0.0000000      SURF                                    
    146     (1,15,6)              0.0000000      SURF                                    
    147     (1,15,7)              0.0000000      SURF                                    
    148     (1,15,8)              0.0000000      SURF                                    
    149     (1,15,9)              0.0000000      SURF                                    
    150     (1,15,10)             0.0000000      SURF                                    
 ----------------------------------------------------------------------------------------




 API PACKAGE (MAR) FLOW RATES   PERIOD      2   STEP       93
 -----------------------------------------------
   NUMBER   CELLID                    RATE      
 -----------------------------------------------
     1      (1,6,5)               35.891935     
     2      (1,6,6)               35.891935     
     3      (1,6,7)               35.891935     
     4      (1,10,5)              32.292716     
     5      (1,10,6)              32.292716     
     6      (1,10,7)              32.292716     
 -----------------------------------------------



1
  HEAD IN LAYER   1 AT END OF TIME STEP  93 IN STRESS PERIOD    2
  ---------------------------------------------------------------------------

            1           2           3           4           5           6           7           8           9          10
 ........................................................................................................................
   1   2.4494E-02  3.2293E-02  4.6783E-02  6.4796E-02  8.0412E-02  8.6855E-02  8.1685E-02  6.8009E-02  5.3338E-02  4.4299E-02
   2   3.0385E-02  4.1394E-02  6.2681E-02  9.0710E-02  0.1164      0.1268      0.1179      9.4569E-02  7.0736E-02  5.6634E-02
   3   3.8964E-02  5.5979E-02  9.1191E-02  0.1424      0.1943      0.2140      0.1961      0.1471      0.1013      7.6145E-02
   4   4.2901E-02  6.6561E-02  0.1212      0.2146      0.3281      0.3639      0.3299      0.2194      0.1320      8.9541E-02
   5   3.1054E-02  5.5159E-02  0.1237      0.2810      0.5545      0.5999      0.5557      0.2842      0.1312      7.2379E-02
   6  -5.5339E-03 -1.4218E-03  3.6530E-02  0.2291       1.000      0.9281       1.000      0.2287      3.4709E-02 -4.9579E-03
   7  -5.8082E-02 -0.1052     -0.2226     -0.4678     -0.9739      -2.169     -0.9754     -0.4729     -0.2369     -0.1411    
   8  -8.5639E-02 -0.1646     -0.3900     -0.9878      -2.738      -9.253      -2.740     -0.9955     -0.4110     -0.2182    
   9  -6.0702E-02 -0.1096     -0.2328     -0.4936      -1.032      -2.238      -1.033     -0.4991     -0.2478     -0.1468    
  10  -1.0034E-02 -8.9366E-03  1.8552E-02  0.1788      0.8585      0.7665      0.8582      0.1777      1.5657E-02 -1.4653E-02
  11   2.6037E-02  4.7790E-02  0.1094      0.2499      0.4938      0.5297      0.4947      0.2525      0.1156      6.2733E-02
  12   3.8235E-02  6.0484E-02  0.1115      0.1980      0.3019      0.3339      0.3034      0.2022      0.1212      8.1467E-02
  13   3.4988E-02  5.1176E-02  8.4608E-02  0.1330      0.1816      0.1999      0.1831      0.1371      9.3715E-02  6.9694E-02
  14   2.7086E-02  3.7545E-02  5.7797E-02  8.4457E-02  0.1088      0.1186      0.1101      8.7818E-02  6.4979E-02  5.1433E-02
  15   2.1609E-02  2.8965E-02  4.2675E-02  5.9765E-02  7.4588E-02  8.0669E-02  7.5667E-02  6.2539E-02  4.8461E-02  3.9788E-02

 HEAD WILL BE SAVED ON UNIT 1100 AT END OF TIME STEP   93, STRESS PERIOD    2


  VOLUME BUDGET FOR ENTIRE MODEL AT END OF TIME STEP   93, STRESS PERIOD   2
  ---------------------------------------------------------------------------------------------------

     CUMULATIVE VOLUME      L**3       RATES FOR THIS TIME STEP      L**3/T          PACKAGE NAME    
     ------------------                 ------------------------                     ----------------

           IN:                                      IN:
           ---                                      ---
              STO-SS =          25.7822                STO-SS =       7.4327E-03     STORAGE                          
              STO-SY =       63212.1727                STO-SY =          15.3760     STORAGE                          
                 WEL =           0.0000                   WEL =           0.0000     WEL-1                            
                 DRN =           0.0000                   DRN =           0.0000     DRN-0                            
                 API =      190310.6274                   API =         204.5540     MAR                              
                 CHD =       2.0279E-08                   CHD =           0.0000     CHD_0                            

            TOTAL IN =      253548.5823              TOTAL IN =         219.9374

          OUT:                                     OUT:
          ----                                     ----
              STO-SS =          22.3312                STO-SS =       7.7763E-03     STORAGE                          
              STO-SY =       43646.6677                STO-SY =          15.3673     STORAGE                          
                 WEL =      209879.4337                   WEL =         204.5540     WEL-1                            
                 DRN =           0.1498                   DRN =       8.3873E-03     DRN-0                            
                 API =           0.0000                   API =           0.0000     MAR                              
                 CHD =       2.0705E-08                   CHD =           0.0000     CHD_0                            

           TOTAL OUT =      253548.5823             TOTAL OUT =         219.9374

            IN - OUT =      -8.9753E-07              IN - OUT =       2.0218E-09

 PERCENT DISCREPANCY =          -0.00     PERCENT DISCREPANCY =           0.00




         TIME SUMMARY AT END OF TIME STEP   93 IN STRESS PERIOD    2
                    SECONDS     MINUTES      HOURS       DAYS        YEARS
                    -----------------------------------------------------------
   TIME STEP LENGTH 8.64000E+05  14400.      240.00      10.000     2.73785E-02
 STRESS PERIOD TIME 8.03520E+07 1.33920E+06  22320.      930.00      2.5462    
         TOTAL TIME 8.04384E+07 1.34064E+06  22344.      931.00      2.5489    


end timestep


start timestep kper="2" kstp="94" mode="normal"

 UBDSV1 SAVING           STO-SS ON UNIT   1099 AT TIME STEP     94, STRESS PERIOD      2
 UBDSV1 SAVING           STO-SY ON UNIT   1099 AT TIME STEP     94, STRESS PERIOD      2
 UBDSV1 SAVING     FLOW-JA-FACE ON UNIT   1099 AT TIME STEP     94, STRESS PERIOD      2
 UBDSV06 SAVING       DATA-SPDIS IN MODEL GWF              PACKAGE NPF             CONNECTED TO MODEL GWF              PACKAGE NPF              ON UNIT   1099 AT TIME STEP     94, STRESS PERIOD      2
 UBDSV06 SAVING              WEL IN MODEL GWF              PACKAGE GWF             CONNECTED TO MODEL GWF              PACKAGE WEL-1            ON UNIT   1099 AT TIME STEP     94, STRESS PERIOD      2
 UBDSV06 SAVING              DRN IN MODEL GWF              PACKAGE GWF             CONNECTED TO MODEL GWF              PACKAGE DRN-0            ON UNIT   1099 AT TIME STEP     94, STRESS PERIOD      2
 UBDSV06 SAVING              API IN MODEL GWF              PACKAGE GWF             CONNECTED TO MODEL GWF              PACKAGE MAR              ON UNIT   1099 AT TIME STEP     94, STRESS PERIOD      2
 UBDSV06 SAVING              CHD IN MODEL GWF              PACKAGE GWF             CONNECTED TO MODEL GWF              PACKAGE CHD_0            ON UNIT   1099 AT TIME STEP     94, STRESS PERIOD      2

    CALCULATED INTERCELL FLOW FOR PERIOD 2 STEP 94
(1,1,1): (1,1,2) 7.930115E-02 (1,2,1) 5.907140E-02
(1,1,2): (1,1,1) -7.930115E-02 (1,1,3) 0.147426 (1,2,2) 9.137149E-02
(1,1,3): (1,1,2) -0.147426 (1,1,4) 0.183403 (1,2,3) 0.159988
(1,1,4): (1,1,3) -0.183403 (1,1,5) 0.159123 (1,2,4) 0.261564
(1,1,5): (1,1,4) -0.159123 (1,1,6) 6.578117E-02 (1,2,5) 0.364172
(1,1,6): (1,1,5) -6.578117E-02 (1,1,7) -5.247365E-02 (1,2,6) 0.404480
(1,1,7): (1,1,6) 5.247365E-02 (1,1,8) -0.138997 (1,2,7) 0.366606
(1,1,8): (1,1,7) 0.138997 (1,1,9) -0.149020 (1,2,8) 0.268181
(1,1,9): (1,1,8) 0.149020 (1,1,10) -9.172976E-02 (1,2,9) 0.175202
(1,1,10): (1,1,9) 9.172976E-02 (1,2,10) 0.123995
(1,2,1): (1,1,1) -5.907140E-02 (1,2,2) 0.111608 (1,3,1) 8.542425E-02
(1,2,2): (1,1,2) -9.137149E-02 (1,2,1) -0.111608 (1,2,3) 0.216080 (1,3,2) 0.145885
(1,2,3): (1,1,3) -0.159988 (1,2,2) -0.216080 (1,2,4) 0.285002 (1,3,3) 0.286833
(1,2,4): (1,1,4) -0.261564 (1,2,3) -0.285002 (1,2,5) 0.261629 (1,3,4) 0.523149
(1,2,5): (1,1,5) -0.364172 (1,2,4) -0.261629 (1,2,6) 0.105973 (1,3,5) 0.793111
(1,2,6): (1,1,6) -0.404480 (1,2,5) -0.105973 (1,2,7) -9.023218E-02 (1,3,6) 0.890133
(1,2,7): (1,1,7) -0.366606 (1,2,6) 9.023218E-02 (1,2,8) -0.237298 (1,3,7) 0.796206
(1,2,8): (1,1,8) -0.268181 (1,2,7) 0.237298 (1,2,9) -0.241975 (1,3,8) 0.531820
(1,2,9): (1,1,9) -0.175202 (1,2,8) 0.241975 (1,2,10) -0.142920 (1,3,9) 0.308011
(1,2,10): (1,1,10) -0.123995 (1,2,9) 0.142920 (1,3,10) 0.195467
(1,3,1): (1,2,1) -8.542425E-02 (1,3,2) 0.172085 (1,4,1) 3.725153E-02
(1,3,2): (1,2,2) -0.145885 (1,3,1) -0.172085 (1,3,3) 0.357125 (1,4,2) 0.103952
(1,3,3): (1,2,3) -0.286833 (1,3,2) -0.357125 (1,3,4) 0.521313 (1,4,3) 0.300769
(1,3,4): (1,2,4) -0.523149 (1,3,3) -0.521313 (1,3,5) 0.530917 (1,4,4) 0.734375
(1,3,5): (1,2,5) -0.793111 (1,3,4) -0.530917 (1,3,6) 0.202365 (1,4,5) 1.37955
(1,3,6): (1,2,6) -0.890133 (1,3,5) -0.202365 (1,3,7) -0.183533 (1,4,6) 1.55117
(1,3,7): (1,2,7) -0.796206 (1,3,6) 0.183533 (1,3,8) -0.500941 (1,4,7) 1.37986
(1,3,8): (1,2,8) -0.531820 (1,3,7) 0.500941 (1,3,9) -0.465641 (1,4,8) 0.735855
(1,3,9): (1,2,9) -0.308011 (1,3,8) 0.465641 (1,3,10) -0.255407 (1,4,9) 0.307628
(1,3,10): (1,2,10) -0.195467 (1,3,9) 0.255407 (1,4,10) 0.131577
(1,4,1): (1,3,1) -3.725153E-02 (1,4,2) 0.238874 (1,5,1) -0.123252
(1,4,2): (1,3,2) -0.103952 (1,4,1) -0.238874 (1,4,3) 0.554427 (1,5,2) -0.119578
(1,4,3): (1,3,3) -0.300769 (1,4,2) -0.554427 (1,4,4) 0.955834 (1,5,3) 2.010099E-02
(1,4,4): (1,3,4) -0.734375 (1,4,3) -0.955834 (1,4,5) 1.17487 (1,5,4) 0.677101
(1,4,5): (1,3,5) -1.37955 (1,4,4) -1.17487 (1,4,6) 0.372153 (1,5,5) 2.38416
(1,4,6): (1,3,6) -1.55117 (1,4,5) -0.372153 (1,4,7) -0.352978 (1,5,6) 2.49737
(1,4,7): (1,3,7) -1.37986 (1,4,6) 0.352978 (1,4,8) -1.14354 (1,5,7) 2.37782
(1,4,8): (1,3,8) -0.735855 (1,4,7) 1.14354 (1,4,9) -0.894515 (1,5,8) 0.660174
(1,4,9): (1,3,9) -0.307628 (1,4,8) 0.894515 (1,4,10) -0.431670 (1,5,9) -1.562499E-02
(1,4,10): (1,3,10) -0.131577 (1,4,9) 0.431670 (1,5,10) -0.179805
(1,5,1): (1,4,1) 0.123252 (1,5,2) 0.242552 (1,6,1) -0.372539
(1,5,2): (1,4,2) 0.119578 (1,5,1) -0.242552 (1,5,3) 0.694889 (1,6,2) -0.575166
(1,5,3): (1,4,3) -2.010099E-02 (1,5,2) -0.694889 (1,5,4) 1.61868 (1,6,3) -0.889729
(1,5,4): (1,4,4) -0.677101 (1,5,3) -1.61868 (1,5,5) 2.88959 (1,6,4) -0.539791
(1,5,5): (1,4,5) -2.38416 (1,5,4) -2.88959 (1,5,6) 0.483515 (1,6,5) 4.89514
(1,5,6): (1,4,6) -2.49737 (1,5,5) -0.483515 (1,5,7) -0.470548 (1,6,6) 3.58186
(1,5,7): (1,4,7) -2.37782 (1,5,6) 0.470548 (1,5,8) -2.86867 (1,6,7) 4.88168
(1,5,8): (1,4,8) -0.660174 (1,5,7) 2.86867 (1,5,9) -1.57617 (1,6,8) -0.579194
(1,5,9): (1,4,9) 1.562499E-02 (1,5,8) 1.57617 (1,5,10) -0.596518 (1,6,9) -0.985722
(1,5,10): (1,4,10) 0.179805 (1,5,9) 0.596518 (1,6,10) -0.787551
(1,6,1): (1,5,1) 0.372539 (1,6,2) 4.058854E-02 (1,7,1) -0.530078
(1,6,2): (1,5,2) 0.575166 (1,6,1) -4.058854E-02 (1,6,3) 0.380916 (1,7,2) -1.04294
(1,6,3): (1,5,3) 0.889729 (1,6,2) -0.380916 (1,6,4) 1.97233 (1,7,3) -2.60783
(1,6,4): (1,5,4) 0.539791 (1,6,3) -1.97233 (1,6,5) 8.48408 (1,7,4) -7.13751
(1,6,5): (1,5,5) -4.89514 (1,6,4) -8.48408 (1,6,6) -0.788063 (1,7,5) -21.7218
(1,6,6): (1,5,6) -3.58186 (1,6,5) 0.788063 (1,6,7) 0.788062 (1,7,6) -33.8484
(1,6,7): (1,5,7) -4.88168 (1,6,6) -0.788062 (1,6,8) -8.49045 (1,7,7) -21.7388
(1,6,8): (1,5,8) 0.579194 (1,6,7) 8.49045 (1,6,9) -1.98667 (1,7,8) -7.18498
(1,6,9): (1,5,9) 0.985722 (1,6,8) 1.98667 (1,6,10) -0.399080 (1,7,9) -2.73394
(1,6,10): (1,5,10) 0.787551 (1,6,9) 0.399080 (1,7,10) -1.36857
(1,7,1): (1,6,1) 0.530078 (1,7,2) -0.469365 (1,8,1) -0.276115
(1,7,2): (1,6,2) 1.04294 (1,7,1) 0.469365 (1,7,3) -1.16328 (1,8,2) -0.590825
(1,7,3): (1,6,3) 2.60783 (1,7,2) 1.16328 (1,7,4) -2.39629 (1,8,3) -1.64065
(1,7,4): (1,6,4) 7.13751 (1,7,3) 2.39629 (1,7,5) -4.81922 (1,8,4) -4.96128
(1,7,5): (1,6,5) 21.7218 (1,7,4) 4.81922 (1,7,6) -10.7783 (1,8,5) -15.9278
(1,7,6): (1,6,6) 33.8484 (1,7,5) 10.7783 (1,7,7) 10.7625 (1,8,6) -55.4745
(1,7,7): (1,6,7) 21.7388 (1,7,6) -10.7625 (1,7,8) 4.78116 (1,8,7) -15.9340
(1,7,8): (1,6,8) 7.18498 (1,7,7) -4.78116 (1,7,9) 2.30141 (1,8,8) -4.98338
(1,7,9): (1,6,9) 2.73394 (1,7,8) -2.30141 (1,7,10) 0.943929 (1,8,9) -1.70338
(1,7,10): (1,6,10) 1.36857 (1,7,9) -0.943929 (1,8,10) -0.763745
(1,8,1): (1,7,1) 0.276115 (1,8,2) -0.784695 (1,9,1) 0.249452
(1,8,2): (1,7,2) 0.590825 (1,8,1) 0.784695 (1,8,3) -2.21936 (1,9,2) 0.545576
(1,8,3): (1,7,3) 1.64065 (1,8,2) 2.21936 (1,8,4) -5.74418 (1,9,3) 1.53542
(1,8,4): (1,7,4) 4.96128 (1,8,3) 5.74418 (1,8,5) -15.7672 (1,9,4) 4.69425
(1,8,5): (1,7,5) 15.9278 (1,8,4) 15.7672 (1,8,6) -47.2902 (1,9,5) 15.2901
(1,8,6): (1,7,6) 55.4745 (1,8,5) 47.2902 (1,8,7) 47.2553 (1,9,6) 54.4093
(1,8,7): (1,7,7) 15.9340 (1,8,6) -47.2553 (1,8,8) 15.7054 (1,9,7) 15.2946
(1,8,8): (1,7,8) 4.98338 (1,8,7) -15.7054 (1,8,9) 5.60278 (1,9,8) 4.71299
(1,8,9): (1,7,9) 1.70338 (1,8,8) -5.60278 (1,8,10) 1.88534 (1,9,9) 1.59175
(1,8,10): (1,7,10) 0.763745 (1,8,9) -1.88534 (1,9,10) 0.705281
(1,9,1): (1,8,1) -0.249452 (1,9,2) -0.487850 (1,10,1) 0.510734
(1,9,2): (1,8,2) -0.545576 (1,9,1) 0.487850 (1,9,3) -1.22253 (1,10,2) 1.01031
(1,9,3): (1,8,3) -1.53542 (1,9,2) 1.22253 (1,9,4) -2.55037 (1,10,3) 2.52316
(1,9,4): (1,8,4) -4.69425 (1,9,3) 2.55037 (1,9,5) -5.11735 (1,10,4) 6.84588
(1,9,5): (1,8,5) -15.2901 (1,9,4) 5.11735 (1,9,6) -10.8180 (1,10,5) 20.5148
(1,9,6): (1,8,6) -54.4093 (1,9,5) 10.8180 (1,9,7) 10.8007 (1,10,6) 32.3353
(1,9,7): (1,8,7) -15.2946 (1,9,6) -10.8007 (1,9,8) 5.07732 (1,10,7) 20.5294
(1,9,8): (1,8,8) -4.71299 (1,9,7) -5.07732 (1,9,9) 2.45215 (1,10,8) 6.89064
(1,9,9): (1,8,9) -1.59175 (1,9,8) -2.45215 (1,9,10) 0.996164 (1,10,9) 2.64442
(1,9,10): (1,8,10) -0.705281 (1,9,9) -0.996164 (1,10,10) 1.32642
(1,10,1): (1,9,1) -0.510734 (1,10,2) 9.128441E-03 (1,11,1) 0.367246
(1,10,2): (1,9,2) -1.01031 (1,10,1) -9.128441E-03 (1,10,3) 0.271719 (1,11,2) 0.576526
(1,10,3): (1,9,3) -2.52316 (1,10,2) -0.271719 (1,10,4) 1.62467 (1,11,3) 0.926258
(1,10,4): (1,9,4) -6.84588 (1,10,3) -1.62467 (1,10,5) 7.36741 (1,11,4) 0.740272
(1,10,5): (1,9,5) -20.5148 (1,10,4) -7.36741 (1,10,6) -1.00073 (1,11,5) -3.94119
(1,10,6): (1,9,6) -32.3353 (1,10,5) 1.00073 (1,10,7) 0.997385 (1,11,6) -2.52974
(1,10,7): (1,9,7) -20.5294 (1,10,6) -0.997385 (1,10,8) -7.37614 (1,11,7) -3.92758
(1,10,8): (1,9,8) -6.89064 (1,10,7) 7.37614 (1,10,9) -1.64435 (1,11,8) 0.778470
(1,10,9): (1,9,9) -2.64442 (1,10,8) 1.64435 (1,10,10) -0.301356 (1,11,9) 1.02044
(1,10,10): (1,9,10) -1.32642 (1,10,9) 0.301356 (1,11,10) 0.787698
(1,11,1): (1,10,1) -0.367246 (1,11,2) 0.217667 (1,12,1) 0.126942
(1,11,2): (1,10,2) -0.576526 (1,11,1) -0.217667 (1,11,3) 0.620415 (1,12,2) 0.133197
(1,11,3): (1,10,3) -0.926258 (1,11,2) -0.620415 (1,11,4) 1.43737 (1,12,3) 2.953545E-02
(1,11,4): (1,10,4) -0.740272 (1,11,3) -1.43737 (1,11,5) 2.55379 (1,12,4) -0.522363
(1,11,5): (1,10,5) 3.94119 (1,11,4) -2.55379 (1,11,6) 0.377330 (1,12,5) -1.99973
(1,11,6): (1,10,6) 2.52974 (1,11,5) -0.377330 (1,11,7) -0.367457 (1,12,6) -2.04650
(1,11,7): (1,10,7) 3.92758 (1,11,6) 0.367457 (1,11,8) -2.53679 (1,12,7) -1.99338
(1,11,8): (1,10,8) -0.778470 (1,11,7) 2.53679 (1,11,9) -1.40086 (1,12,8) -0.505442
(1,11,9): (1,10,9) -1.02044 (1,11,8) 1.40086 (1,11,10) -0.533007 (1,12,9) 6.576651E-02
(1,11,10): (1,10,10) -0.787698 (1,11,9) 0.533007 (1,12,10) 0.196401
(1,12,1): (1,11,1) -0.126942 (1,12,2) 0.223927 (1,13,1) -3.017994E-02
(1,12,2): (1,11,2) -0.133197 (1,12,1) -0.223927 (1,12,3) 0.516257 (1,13,2) -9.058382E-02
(1,12,3): (1,11,3) -2.953545E-02 (1,12,2) -0.516257 (1,12,4) 0.880665 (1,13,3) -0.268102
(1,12,4): (1,11,4) 0.522363 (1,12,3) -0.880665 (1,12,5) 1.06905 (1,13,4) -0.656962
(1,12,5): (1,11,5) 1.99973 (1,12,4) -1.06905 (1,12,6) 0.331154 (1,13,5) -1.23110
(1,12,6): (1,11,6) 2.04650 (1,12,5) -0.331154 (1,12,7) -0.315033 (1,13,6) -1.37623
(1,12,7): (1,11,7) 1.99338 (1,12,6) 0.315033 (1,12,8) -1.04157 (1,13,7) -1.23108
(1,12,8): (1,11,8) 0.505442 (1,12,7) 1.04157 (1,12,9) -0.824824 (1,13,8) -0.657675
(1,12,9): (1,11,9) -6.576651E-02 (1,12,8) 0.824824 (1,12,10) -0.401942 (1,13,9) -0.273366
(1,12,10): (1,11,10) -0.196401 (1,12,9) 0.401942 (1,13,10) -0.114472
(1,13,1): (1,12,1) 3.017994E-02 (1,13,2) 0.163443 (1,14,1) -7.856737E-02
(1,13,2): (1,12,2) 9.058382E-02 (1,13,1) -0.163443 (1,13,3) 0.338309 (1,14,2) -0.136013
(1,13,3): (1,12,3) 0.268102 (1,13,2) -0.338309 (1,13,4) 0.490973 (1,14,3) -0.268868
(1,13,4): (1,12,4) 0.656962 (1,13,3) -0.490973 (1,13,5) 0.495778 (1,14,4) -0.489177
(1,13,5): (1,12,5) 1.23110 (1,13,4) -0.495778 (1,13,6) 0.187410 (1,14,5) -0.737868
(1,13,6): (1,12,6) 1.37623 (1,13,5) -0.187410 (1,13,7) -0.171286 (1,14,6) -0.826092
(1,13,7): (1,12,7) 1.23108 (1,13,6) 0.171286 (1,13,8) -0.469181 (1,14,7) -0.740536
(1,13,8): (1,12,8) 0.657675 (1,13,7) 0.469181 (1,13,9) -0.439901 (1,14,8) -0.496906
(1,13,9): (1,12,9) 0.273366 (1,13,8) 0.439901 (1,13,10) -0.242849 (1,14,9) -0.288338
(1,13,10): (1,12,10) 0.114472 (1,13,9) 0.242849 (1,14,10) -0.182504
(1,14,1): (1,13,1) 7.856737E-02 (1,14,2) 0.105982 (1,15,1) -5.492138E-02
(1,14,2): (1,13,2) 0.136013 (1,14,1) -0.105982 (1,14,3) 0.205364 (1,15,2) -8.606693E-02
(1,14,3): (1,13,3) 0.268868 (1,14,2) -0.205364 (1,14,4) 0.270660 (1,15,3) -0.151908
(1,14,4): (1,13,4) 0.489177 (1,14,3) -0.270660 (1,14,5) 0.247663 (1,15,4) -0.248629
(1,14,5): (1,13,5) 0.737868 (1,14,4) -0.247663 (1,14,6) 9.971918E-02 (1,15,5) -0.345474
(1,14,6): (1,13,6) 0.826092 (1,14,5) -9.971918E-02 (1,14,7) -8.626144E-02 (1,15,6) -0.383283
(1,14,7): (1,13,7) 0.740536 (1,14,6) 8.626144E-02 (1,14,8) -0.226182 (1,15,7) -0.347629
(1,14,8): (1,13,8) 0.496906 (1,14,7) 0.226182 (1,14,9) -0.231448 (1,15,8) -0.254632
(1,14,9): (1,13,9) 0.288338 (1,14,8) 0.231448 (1,14,10) -0.137062 (1,15,9) -0.166051
(1,14,10): (1,13,10) 0.182504 (1,14,9) 0.137062 (1,15,10) -0.116941
(1,15,1): (1,14,1) 5.492138E-02 (1,15,2) 7.483029E-02
(1,15,2): (1,14,2) 8.606693E-02 (1,15,1) -7.483029E-02 (1,15,3) 0.139489
(1,15,3): (1,14,3) 0.151908 (1,15,2) -0.139489 (1,15,4) 0.173918
(1,15,4): (1,14,4) 0.248629 (1,15,3) -0.173918 (1,15,5) 0.150910
(1,15,5): (1,14,5) 0.345474 (1,15,4) -0.150910 (1,15,6) 6.201427E-02
(1,15,6): (1,14,6) 0.383283 (1,15,5) -6.201427E-02 (1,15,7) -5.071078E-02
(1,15,7): (1,14,7) 0.347629 (1,15,6) 5.071078E-02 (1,15,8) -0.133294
(1,15,8): (1,14,8) 0.254632 (1,15,7) 0.133294 (1,15,9) -0.142888
(1,15,9): (1,14,9) 0.166051 (1,15,8) 0.142888 (1,15,10) -8.796507E-02
(1,15,10): (1,14,10) 0.116941 (1,15,9) 8.796507E-02

 WEL PACKAGE (WEL-1) FLOW RATES   PERIOD      2   STEP       94
 ----------------------------------------------------------------------------------------
   NUMBER   CELLID                    RATE       NAME                                    
 ----------------------------------------------------------------------------------------
     1      (1,8,6)              -204.47714      WEL                                     
 ----------------------------------------------------------------------------------------




 DRN PACKAGE (DRN-0) FLOW RATES   PERIOD      2   STEP       94
 ----------------------------------------------------------------------------------------
   NUMBER   CELLID                    RATE       NAME                                    
 ----------------------------------------------------------------------------------------
     1      (1,1,1)               0.0000000      SURF                                    
     2      (1,1,2)               0.0000000      SURF                                    
     3      (1,1,3)               0.0000000      SURF                                    
     4      (1,1,4)               0.0000000      SURF                                    
     5      (1,1,5)               0.0000000      SURF                                    
     6      (1,1,6)               0.0000000      SURF                                    
     7      (1,1,7)               0.0000000      SURF                                    
     8      (1,1,8)               0.0000000      SURF                                    
     9      (1,1,9)               0.0000000      SURF                                    
     10     (1,1,10)              0.0000000      SURF                                    
     11     (1,2,1)               0.0000000      SURF                                    
     12     (1,2,2)               0.0000000      SURF                                    
     13     (1,2,3)               0.0000000      SURF                                    
     14     (1,2,4)               0.0000000      SURF                                    
     15     (1,2,5)               0.0000000      SURF                                    
     16     (1,2,6)               0.0000000      SURF                                    
     17     (1,2,7)               0.0000000      SURF                                    
     18     (1,2,8)               0.0000000      SURF                                    
     19     (1,2,9)               0.0000000      SURF                                    
     20     (1,2,10)              0.0000000      SURF                                    
     21     (1,3,1)               0.0000000      SURF                                    
     22     (1,3,2)               0.0000000      SURF                                    
     23     (1,3,3)               0.0000000      SURF                                    
     24     (1,3,4)               0.0000000      SURF                                    
     25     (1,3,5)               0.0000000      SURF                                    
     26     (1,3,6)               0.0000000      SURF                                    
     27     (1,3,7)               0.0000000      SURF                                    
     28     (1,3,8)               0.0000000      SURF                                    
     29     (1,3,9)               0.0000000      SURF                                    
     30     (1,3,10)              0.0000000      SURF                                    
     31     (1,4,1)               0.0000000      SURF                                    
     32     (1,4,2)               0.0000000      SURF                                    
     33     (1,4,3)               0.0000000      SURF                                    
     34     (1,4,4)               0.0000000      SURF                                    
     35     (1,4,5)               0.0000000      SURF                                    
     36     (1,4,6)               0.0000000      SURF                                    
     37     (1,4,7)               0.0000000      SURF                                    
     38     (1,4,8)               0.0000000      SURF                                    
     39     (1,4,9)               0.0000000      SURF                                    
     40     (1,4,10)              0.0000000      SURF                                    
     41     (1,5,1)               0.0000000      SURF                                    
     42     (1,5,2)               0.0000000      SURF                                    
     43     (1,5,3)               0.0000000      SURF                                    
     44     (1,5,4)               0.0000000      SURF                                    
     45     (1,5,5)               0.0000000      SURF                                    
     46     (1,5,6)               0.0000000      SURF                                    
     47     (1,5,7)               0.0000000      SURF                                    
     48     (1,5,8)               0.0000000      SURF                                    
     49     (1,5,9)               0.0000000      SURF                                    
     50     (1,5,10)              0.0000000      SURF                                    
     51     (1,6,1)               0.0000000      SURF                                    
     52     (1,6,2)               0.0000000      SURF                                    
     53     (1,6,3)               0.0000000      SURF                                    
     54     (1,6,4)               0.0000000      SURF                                    
     55     (1,6,5)              -9.85979525E-03 SURF                                    
     56     (1,6,6)               0.0000000      SURF                                    
     57     (1,6,7)              -3.16329533E-07 SURF                                    
     58     (1,6,8)               0.0000000      SURF                                    
     59     (1,6,9)               0.0000000      SURF                                    
     60     (1,6,10)              0.0000000      SURF                                    
     61     (1,7,1)               0.0000000      SURF                                    
     62     (1,7,2)               0.0000000      SURF                                    
     63     (1,7,3)               0.0000000      SURF                                    
     64     (1,7,4)               0.0000000      SURF                                    
     65     (1,7,5)               0.0000000      SURF                                    
     66     (1,7,6)               0.0000000      SURF                                    
     67     (1,7,7)               0.0000000      SURF                                    
     68     (1,7,8)               0.0000000      SURF                                    
     69     (1,7,9)               0.0000000      SURF                                    
     70     (1,7,10)              0.0000000      SURF                                    
     71     (1,8,1)               0.0000000      SURF                                    
     72     (1,8,2)               0.0000000      SURF                                    
     73     (1,8,3)               0.0000000      SURF                                    
     74     (1,8,4)               0.0000000      SURF                                    
     75     (1,8,5)               0.0000000      SURF                                    
     76     (1,8,6)               0.0000000      SURF                                    
     77     (1,8,7)               0.0000000      SURF                                    
     78     (1,8,8)               0.0000000      SURF                                    
     79     (1,8,9)               0.0000000      SURF                                    
     80     (1,8,10)              0.0000000      SURF                                    
     81     (1,9,1)               0.0000000      SURF                                    
     82     (1,9,2)               0.0000000      SURF                                    
     83     (1,9,3)               0.0000000      SURF                                    
     84     (1,9,4)               0.0000000      SURF                                    
     85     (1,9,5)               0.0000000      SURF                                    
     86     (1,9,6)               0.0000000      SURF                                    
     87     (1,9,7)               0.0000000      SURF                                    
     88     (1,9,8)               0.0000000      SURF                                    
     89     (1,9,9)               0.0000000      SURF                                    
     90     (1,9,10)              0.0000000      SURF                                    
     91     (1,10,1)              0.0000000      SURF                                    
     92     (1,10,2)              0.0000000      SURF                                    
     93     (1,10,3)              0.0000000      SURF                                    
     94     (1,10,4)              0.0000000      SURF                                    
     95     (1,10,5)              0.0000000      SURF                                    
     96     (1,10,6)              0.0000000      SURF                                    
     97     (1,10,7)              0.0000000      SURF                                    
     98     (1,10,8)              0.0000000      SURF                                    
     99     (1,10,9)              0.0000000      SURF                                    
    100     (1,10,10)             0.0000000      SURF                                    
    101     (1,11,1)              0.0000000      SURF                                    
    102     (1,11,2)              0.0000000      SURF                                    
    103     (1,11,3)              0.0000000      SURF                                    
    104     (1,11,4)              0.0000000      SURF                                    
    105     (1,11,5)              0.0000000      SURF                                    
    106     (1,11,6)              0.0000000      SURF                                    
    107     (1,11,7)              0.0000000      SURF                                    
    108     (1,11,8)              0.0000000      SURF                                    
    109     (1,11,9)              0.0000000      SURF                                    
    110     (1,11,10)             0.0000000      SURF                                    
    111     (1,12,1)              0.0000000      SURF                                    
    112     (1,12,2)              0.0000000      SURF                                    
    113     (1,12,3)              0.0000000      SURF                                    
    114     (1,12,4)              0.0000000      SURF                                    
    115     (1,12,5)              0.0000000      SURF                                    
    116     (1,12,6)              0.0000000      SURF                                    
    117     (1,12,7)              0.0000000      SURF                                    
    118     (1,12,8)              0.0000000      SURF                                    
    119     (1,12,9)              0.0000000      SURF                                    
    120     (1,12,10)             0.0000000      SURF                                    
    121     (1,13,1)              0.0000000      SURF                                    
    122     (1,13,2)              0.0000000      SURF                                    
    123     (1,13,3)              0.0000000      SURF                                    
    124     (1,13,4)              0.0000000      SURF                                    
    125     (1,13,5)              0.0000000      SURF                                    
    126     (1,13,6)              0.0000000      SURF                                    
    127     (1,13,7)              0.0000000      SURF                                    
    128     (1,13,8)              0.0000000      SURF                                    
    129     (1,13,9)              0.0000000      SURF                                    
    130     (1,13,10)             0.0000000      SURF                                    
    131     (1,14,1)              0.0000000      SURF                                    
    132     (1,14,2)              0.0000000      SURF                                    
    133     (1,14,3)              0.0000000      SURF                                    
    134     (1,14,4)              0.0000000      SURF                                    
    135     (1,14,5)              0.0000000      SURF                                    
    136     (1,14,6)              0.0000000      SURF                                    
    137     (1,14,7)              0.0000000      SURF                                    
    138     (1,14,8)              0.0000000      SURF                                    
    139     (1,14,9)              0.0000000      SURF                                    
    140     (1,14,10)             0.0000000      SURF                                    
    141     (1,15,1)              0.0000000      SURF                                    
    142     (1,15,2)              0.0000000      SURF                                    
    143     (1,15,3)              0.0000000      SURF                                    
    144     (1,15,4)              0.0000000      SURF                                    
    145     (1,15,5)              0.0000000      SURF                                    
    146     (1,15,6)              0.0000000      SURF                                    
    147     (1,15,7)              0.0000000      SURF                                    
    148     (1,15,8)              0.0000000      SURF                                    
    149     (1,15,9)              0.0000000      SURF                                    
    150     (1,15,10)             0.0000000      SURF                                    
 ----------------------------------------------------------------------------------------




 API PACKAGE (MAR) FLOW RATES   PERIOD      2   STEP       94
 -----------------------------------------------
   NUMBER   CELLID                    RATE      
 -----------------------------------------------
     1      (1,6,5)               35.898975     
     2      (1,6,6)               35.898975     
     3      (1,6,7)               35.898975     
     4      (1,10,5)              32.260073     
     5      (1,10,6)              32.260073     
     6      (1,10,7)              32.260073     
 -----------------------------------------------



1
  HEAD IN LAYER   1 AT END OF TIME STEP  94 IN STRESS PERIOD    2
  ---------------------------------------------------------------------------

            1           2           3           4           5           6           7           8           9          10
 ........................................................................................................................
   1   2.5186E-02  3.3090E-02  4.7762E-02  6.5982E-02  8.1765E-02  8.8286E-02  8.3084E-02  6.9299E-02  5.4500E-02  4.5377E-02
   2   3.1074E-02  4.2188E-02  6.3660E-02  9.1900E-02  0.1178      0.1282      0.1193      9.5863E-02  7.1895E-02  5.7705E-02
   3   3.9583E-02  5.6695E-02  9.2081E-02  0.1435      0.1955      0.2154      0.1974      0.1483      0.1024      7.7102E-02
   4   4.3292E-02  6.7021E-02  0.1218      0.2154      0.3291      0.3650      0.3310      0.2203      0.1327      9.0142E-02
   5   3.1020E-02  5.5142E-02  0.1238      0.2812      0.5550      0.6006      0.5562      0.2845      0.1312      7.2322E-02
   6  -6.1184E-03 -2.0587E-03  3.5897E-02  0.2287       1.000      0.9284       1.000      0.2281      3.3906E-02 -5.8671E-03
   7  -5.9159E-02 -0.1064     -0.2240     -0.4691     -0.9747      -2.169     -0.9763     -0.4743     -0.2386     -0.1428    
   8  -8.6934E-02 -0.1661     -0.3918     -0.9896      -2.740      -9.253      -2.742     -0.9975     -0.4131     -0.2203    
   9  -6.1834E-02 -0.1109     -0.2345     -0.4957      -1.034      -2.241      -1.036     -0.5013     -0.2498     -0.1487    
  10  -1.0706E-02 -9.7922E-03  1.7333E-02  0.1770      0.8556      0.7635      0.8553      0.1758      1.4253E-02 -1.5840E-02
  11   2.5924E-02  4.7587E-02  0.1090      0.2492      0.4926      0.5284      0.4935      0.2518      0.1151      6.2441E-02
  12   3.8569E-02  6.0826E-02  0.1119      0.1982      0.3020      0.3341      0.3036      0.2025      0.1216      8.1922E-02
  13   3.5563E-02  5.1823E-02  8.5367E-02  0.1338      0.1825      0.2009      0.1841      0.1380      9.4625E-02  7.0568E-02
  14   2.7734E-02  3.8292E-02  5.8708E-02  8.5545E-02  0.1100      0.1199      0.1114      8.9002E-02  6.6061E-02  5.2445E-02
  15   2.2257E-02  2.9718E-02  4.3606E-02  6.0893E-02  7.5870E-02  8.2021E-02  7.6991E-02  6.3764E-02  4.9565E-02  4.0812E-02

 HEAD WILL BE SAVED ON UNIT 1100 AT END OF TIME STEP   94, STRESS PERIOD    2


  VOLUME BUDGET FOR ENTIRE MODEL AT END OF TIME STEP   94, STRESS PERIOD   2
  ---------------------------------------------------------------------------------------------------

     CUMULATIVE VOLUME      L**3       RATES FOR THIS TIME STEP      L**3/T          PACKAGE NAME    
     ------------------                 ------------------------                     ----------------

           IN:                                      IN:
           ---                                      ---
              STO-SS =          25.8557                STO-SS =       7.3555E-03     STORAGE                          
              STO-SY =       63364.3037                STO-SY =          15.2131     STORAGE                          
                 WEL =           0.0000                   WEL =           0.0000     WEL-1                            
                 DRN =           0.0000                   DRN =           0.0000     DRN-0                            
                 API =      192355.3989                   API =         204.4771     MAR                              
                 CHD =       2.0279E-08                   CHD =           0.0000     CHD_0                            

            TOTAL IN =      255745.5583              TOTAL IN =         219.6976

          OUT:                                     OUT:
          ----                                     ----
              STO-SS =          22.4081                STO-SS =       7.6933E-03     STORAGE                          
              STO-SY =       43798.6966                STO-SY =          15.2029     STORAGE                          
                 WEL =      211924.2051                   WEL =         204.4771     WEL-1                            
                 DRN =           0.2484                   DRN =       9.8601E-03     DRN-0                            
                 API =           0.0000                   API =           0.0000     MAR                              
                 CHD =       2.0705E-08                   CHD =           0.0000     CHD_0                            

           TOTAL OUT =      255745.5583             TOTAL OUT =         219.6976

            IN - OUT =      -8.7731E-07              IN - OUT =       2.0209E-09

 PERCENT DISCREPANCY =          -0.00     PERCENT DISCREPANCY =           0.00




         TIME SUMMARY AT END OF TIME STEP   94 IN STRESS PERIOD    2
                    SECONDS     MINUTES      HOURS       DAYS        YEARS
                    -----------------------------------------------------------
   TIME STEP LENGTH 8.64000E+05  14400.      240.00      10.000     2.73785E-02
 STRESS PERIOD TIME 8.12160E+07 1.35360E+06  22560.      940.00      2.5736    
         TOTAL TIME 8.13024E+07 1.35504E+06  22584.      941.00      2.5763    


end timestep


start timestep kper="2" kstp="95" mode="normal"

 UBDSV1 SAVING           STO-SS ON UNIT   1099 AT TIME STEP     95, STRESS PERIOD      2
 UBDSV1 SAVING           STO-SY ON UNIT   1099 AT TIME STEP     95, STRESS PERIOD      2
 UBDSV1 SAVING     FLOW-JA-FACE ON UNIT   1099 AT TIME STEP     95, STRESS PERIOD      2
 UBDSV06 SAVING       DATA-SPDIS IN MODEL GWF              PACKAGE NPF             CONNECTED TO MODEL GWF              PACKAGE NPF              ON UNIT   1099 AT TIME STEP     95, STRESS PERIOD      2
 UBDSV06 SAVING              WEL IN MODEL GWF              PACKAGE GWF             CONNECTED TO MODEL GWF              PACKAGE WEL-1            ON UNIT   1099 AT TIME STEP     95, STRESS PERIOD      2
 UBDSV06 SAVING              DRN IN MODEL GWF              PACKAGE GWF             CONNECTED TO MODEL GWF              PACKAGE DRN-0            ON UNIT   1099 AT TIME STEP     95, STRESS PERIOD      2
 UBDSV06 SAVING              API IN MODEL GWF              PACKAGE GWF             CONNECTED TO MODEL GWF              PACKAGE MAR              ON UNIT   1099 AT TIME STEP     95, STRESS PERIOD      2
 UBDSV06 SAVING              CHD IN MODEL GWF              PACKAGE GWF             CONNECTED TO MODEL GWF              PACKAGE CHD_0            ON UNIT   1099 AT TIME STEP     95, STRESS PERIOD      2

    CALCULATED INTERCELL FLOW FOR PERIOD 2 STEP 95
(1,1,1): (1,1,2) 8.035235E-02 (1,2,1) 5.902207E-02
(1,1,2): (1,1,1) -8.035235E-02 (1,1,3) 0.149246 (1,2,2) 9.131779E-02
(1,1,3): (1,1,2) -0.149246 (1,1,4) 0.185474 (1,2,3) 0.159953
(1,1,4): (1,1,3) -0.185474 (1,1,5) 0.160812 (1,2,4) 0.261595
(1,1,5): (1,1,4) -0.160812 (1,1,6) 6.656022E-02 (1,2,5) 0.364292
(1,1,6): (1,1,5) -6.656022E-02 (1,1,7) -5.277840E-02 (1,2,6) 0.404645
(1,1,7): (1,1,6) 5.277840E-02 (1,1,8) -0.140095 (1,2,7) 0.366726
(1,1,8): (1,1,7) 0.140095 (1,1,9) -0.150303 (1,2,8) 0.268204
(1,1,9): (1,1,8) 0.150303 (1,1,10) -9.256551E-02 (1,2,9) 0.175141
(1,1,10): (1,1,9) 9.256551E-02 (1,2,10) 0.123893
(1,2,1): (1,1,1) -5.902207E-02 (1,2,2) 0.112655 (1,3,1) 8.467652E-02
(1,2,2): (1,1,2) -9.131779E-02 (1,2,1) -0.112655 (1,2,3) 0.217921 (1,3,2) 0.145049
(1,2,3): (1,1,3) -0.159953 (1,2,2) -0.217921 (1,2,4) 0.287141 (1,3,3) 0.285919
(1,2,4): (1,1,4) -0.261595 (1,2,3) -0.287141 (1,2,5) 0.263409 (1,3,4) 0.522269
(1,2,5): (1,1,5) -0.364292 (1,2,4) -0.263409 (1,2,6) 0.106797 (1,3,5) 0.792363
(1,2,6): (1,1,6) -0.404645 (1,2,5) -0.106797 (1,2,7) -9.058196E-02 (1,3,6) 0.889453
(1,2,7): (1,1,7) -0.366726 (1,2,6) 9.058196E-02 (1,2,8) -0.238495 (1,3,7) 0.795412
(1,2,8): (1,1,8) -0.268204 (1,2,7) 0.238495 (1,2,9) -0.243343 (1,3,8) 0.530823
(1,2,9): (1,1,9) -0.175141 (1,2,8) 0.243343 (1,2,10) -0.143798 (1,3,9) 0.306869
(1,2,10): (1,1,10) -0.123893 (1,2,9) 0.143798 (1,3,10) 0.194270
(1,3,1): (1,2,1) -8.467652E-02 (1,3,2) 0.173044 (1,4,1) 3.493460E-02
(1,3,2): (1,2,2) -0.145049 (1,3,1) -0.173044 (1,3,3) 0.358891 (1,4,2) 0.101364
(1,3,3): (1,2,3) -0.285919 (1,3,2) -0.358891 (1,3,4) 0.523495 (1,4,3) 0.297873
(1,3,4): (1,2,4) -0.522269 (1,3,3) -0.523495 (1,3,5) 0.532836 (1,4,4) 0.731411
(1,3,5): (1,2,5) -0.792363 (1,3,4) -0.532836 (1,3,6) 0.203258 (1,4,5) 1.37678
(1,3,6): (1,2,6) -0.889453 (1,3,5) -0.203258 (1,3,7) -0.183997 (1,4,6) 1.54851
(1,3,7): (1,2,7) -0.795412 (1,3,6) 0.183997 (1,3,8) -0.502345 (1,4,7) 1.37694
(1,3,8): (1,2,8) -0.530823 (1,3,7) 0.502345 (1,3,9) -0.467160 (1,4,8) 0.732533
(1,3,9): (1,2,9) -0.306869 (1,3,8) 0.467160 (1,3,10) -0.256341 (1,4,9) 0.304073
(1,3,10): (1,2,10) -0.194270 (1,3,9) 0.256341 (1,4,10) 0.127968
(1,4,1): (1,3,1) -3.493460E-02 (1,4,2) 0.239564 (1,5,1) -0.127516
(1,4,2): (1,3,2) -0.101364 (1,4,1) -0.239564 (1,4,3) 0.555894 (1,5,2) -0.124341
(1,4,3): (1,3,3) -0.297873 (1,4,2) -0.555894 (1,4,4) 0.957967 (1,5,3) 1.476536E-02
(1,4,4): (1,3,4) -0.731411 (1,4,3) -0.957967 (1,4,5) 1.17701 (1,5,4) 0.671661
(1,4,5): (1,3,5) -1.37678 (1,4,4) -1.17701 (1,4,6) 0.373165 (1,5,5) 2.37922
(1,4,6): (1,3,6) -1.54851 (1,4,5) -0.373165 (1,4,7) -0.353707 (1,5,6) 2.49277
(1,4,7): (1,3,7) -1.37694 (1,4,6) 0.353707 (1,4,8) -1.14537 (1,5,7) 2.37264
(1,4,8): (1,3,8) -0.732533 (1,4,7) 1.14537 (1,4,9) -0.896288 (1,5,8) 0.654092
(1,4,9): (1,3,9) -0.304073 (1,4,8) 0.896288 (1,4,10) -0.432666 (1,5,9) -2.213889E-02
(1,4,10): (1,3,10) -0.127968 (1,4,9) 0.432666 (1,5,10) -0.186388
(1,5,1): (1,4,1) 0.127516 (1,5,2) 0.242743 (1,6,1) -0.378004
(1,5,2): (1,4,2) 0.124341 (1,5,1) -0.242743 (1,5,3) 0.695776 (1,6,2) -0.581314
(1,5,3): (1,4,3) -1.476536E-02 (1,5,2) -0.695776 (1,5,4) 1.62076 (1,6,3) -0.896715
(1,5,4): (1,4,4) -0.671661 (1,5,3) -1.62076 (1,5,5) 2.89235 (1,6,4) -0.546849
(1,5,5): (1,4,5) -2.37922 (1,5,4) -2.89235 (1,5,6) 0.484871 (1,6,5) 4.88949
(1,5,6): (1,4,6) -2.49277 (1,5,5) -0.484871 (1,5,7) -0.471857 (1,6,6) 3.57735
(1,5,7): (1,4,7) -2.37264 (1,5,6) 0.471857 (1,5,8) -2.87154 (1,6,7) 4.87598
(1,5,8): (1,4,8) -0.654092 (1,5,7) 2.87154 (1,5,9) -1.57843 (1,6,8) -0.587022
(1,5,9): (1,4,9) 2.213889E-02 (1,5,8) 1.57843 (1,5,10) -0.597575 (1,6,9) -0.994187
(1,5,10): (1,4,10) 0.186388 (1,5,9) 0.597575 (1,6,10) -0.796001
(1,6,1): (1,5,1) 0.378004 (1,6,2) 4.011030E-02 (1,7,1) -0.534896
(1,6,2): (1,5,2) 0.581314 (1,6,1) -4.011030E-02 (1,6,3) 0.380986 (1,7,2) -1.04849
(1,6,3): (1,5,3) 0.896715 (1,6,2) -0.380986 (1,6,4) 1.97432 (1,7,3) -2.61450
(1,6,4): (1,5,4) 0.546849 (1,6,3) -1.97432 (1,6,5) 8.48870 (1,7,4) -7.14524
(1,6,5): (1,5,5) -4.88949 (1,6,4) -8.48870 (1,6,6) -0.785657 (1,7,5) -21.7307
(1,6,6): (1,5,6) -3.57735 (1,6,5) 0.785657 (1,6,7) 0.785655 (1,7,6) -33.8560
(1,6,7): (1,5,7) -4.87598 (1,6,6) -0.785655 (1,6,8) -8.49594 (1,7,7) -21.7483
(1,6,8): (1,5,8) 0.587022 (1,6,7) 8.49594 (1,6,9) -1.98955 (1,7,8) -7.19344
(1,6,9): (1,5,9) 0.994187 (1,6,8) 1.98955 (1,6,10) -0.400137 (1,7,9) -2.74190
(1,6,10): (1,5,10) 0.796001 (1,6,9) 0.400137 (1,7,10) -1.37615
(1,7,1): (1,6,1) 0.534896 (1,7,2) -0.470548 (1,8,1) -0.278238
(1,7,2): (1,6,2) 1.04849 (1,7,1) 0.470548 (1,7,3) -1.16423 (1,8,2) -0.593516
(1,7,3): (1,6,3) 2.61450 (1,7,2) 1.16423 (1,7,4) -2.39500 (1,8,3) -1.64443
(1,7,4): (1,6,4) 7.14524 (1,7,3) 2.39500 (1,7,5) -4.81480 (1,8,4) -4.96633
(1,7,5): (1,6,5) 21.7307 (1,7,4) 4.81480 (1,7,6) -10.7738 (1,8,5) -15.9326
(1,7,6): (1,6,6) 33.8560 (1,7,5) 10.7738 (1,7,7) 10.7575 (1,8,6) -55.4702
(1,7,7): (1,6,7) 21.7483 (1,7,6) -10.7575 (1,7,8) 4.77572 (1,8,7) -15.9389
(1,7,8): (1,6,8) 7.19344 (1,7,7) -4.77572 (1,7,9) 2.29864 (1,8,8) -4.98869
(1,7,9): (1,6,9) 2.74190 (1,7,8) -2.29864 (1,7,10) 0.943127 (1,8,9) -1.70770
(1,7,10): (1,6,10) 1.37615 (1,7,9) -0.943127 (1,8,10) -0.767377
(1,8,1): (1,7,1) 0.278238 (1,8,2) -0.786445 (1,9,1) 0.250991
(1,8,2): (1,7,2) 0.593516 (1,8,1) 0.786445 (1,8,3) -2.22139 (1,9,2) 0.546834
(1,8,3): (1,7,3) 1.64443 (1,8,2) 2.22139 (1,8,4) -5.74399 (1,9,3) 1.53550
(1,8,4): (1,7,4) 4.96633 (1,8,3) 5.74399 (1,8,5) -15.7613 (1,9,4) 4.69090
(1,8,5): (1,7,5) 15.9326 (1,8,4) 15.7613 (1,8,6) -47.2713 (1,9,5) 15.2785
(1,8,6): (1,7,6) 55.4702 (1,8,5) 47.2713 (1,8,7) 47.2353 (1,9,6) 54.3780
(1,8,7): (1,7,7) 15.9389 (1,8,6) -47.2353 (1,8,8) 15.6981 (1,9,7) 15.2831
(1,8,8): (1,7,8) 4.98869 (1,8,7) -15.6981 (1,8,9) 5.60076 (1,9,8) 4.70987
(1,8,9): (1,7,9) 1.70770 (1,8,8) -5.60076 (1,8,10) 1.88518 (1,9,9) 1.59225
(1,8,10): (1,7,10) 0.767377 (1,8,9) -1.88518 (1,9,10) 0.707082
(1,9,1): (1,8,1) -0.250991 (1,9,2) -0.489880 (1,10,1) 0.515219
(1,9,2): (1,8,2) -0.546834 (1,9,1) 0.489880 (1,9,3) -1.22573 (1,10,2) 1.01504
(1,9,3): (1,8,3) -1.53550 (1,9,2) 1.22573 (1,9,4) -2.55351 (1,10,3) 2.52750
(1,9,4): (1,8,4) -4.69090 (1,9,3) 2.55351 (1,9,5) -5.11909 (1,10,4) 6.84719
(1,9,5): (1,8,5) -15.2785 (1,9,4) 5.11909 (1,9,6) -10.8143 (1,10,5) 20.5047
(1,9,6): (1,8,6) -54.3780 (1,9,5) 10.8143 (1,9,7) 10.7963 (1,10,6) 32.3182
(1,9,7): (1,8,7) -15.2831 (1,9,6) -10.7963 (1,9,8) 5.07805 (1,10,7) 20.5196
(1,9,8): (1,8,8) -4.70987 (1,9,7) -5.07805 (1,9,9) 2.45374 (1,10,8) 6.89262
(1,9,9): (1,8,9) -1.59225 (1,9,8) -2.45374 (1,9,10) 0.997318 (1,10,9) 2.64999
(1,9,10): (1,8,10) -0.707082 (1,9,9) -0.997318 (1,10,10) 1.33296
(1,10,1): (1,9,1) -0.515219 (1,10,2) 7.322193E-03 (1,11,1) 0.372780
(1,10,2): (1,9,2) -1.01504 (1,10,1) -7.322193E-03 (1,10,3) 0.268105 (1,11,2) 0.582972
(1,10,3): (1,9,3) -2.52750 (1,10,2) -0.268105 (1,10,4) 1.61844 (1,11,3) 0.934345
(1,10,4): (1,9,4) -6.84719 (1,10,3) -1.61844 (1,10,5) 7.35483 (1,11,4) 0.751051
(1,10,5): (1,9,5) -20.5047 (1,10,4) -7.35483 (1,10,6) -1.00276 (1,11,5) -3.92277
(1,10,6): (1,9,6) -32.3182 (1,10,5) 1.00276 (1,10,7) 0.999061 (1,11,6) -2.51092
(1,10,7): (1,9,7) -20.5196 (1,10,6) -0.999061 (1,10,8) -7.36414 (1,11,7) -3.90881
(1,10,8): (1,9,8) -6.89262 (1,10,7) 7.36414 (1,10,9) -1.63909 (1,11,8) 0.790051
(1,10,9): (1,9,9) -2.64999 (1,10,8) 1.63909 (1,10,10) -0.299173 (1,11,9) 1.03002
(1,10,10): (1,9,10) -1.33296 (1,10,9) 0.299173 (1,11,10) 0.796532
(1,11,1): (1,10,1) -0.372780 (1,11,2) 0.216755 (1,12,1) 0.131433
(1,11,2): (1,10,2) -0.582972 (1,11,1) -0.216755 (1,11,3) 0.618402 (1,12,2) 0.138664
(1,11,3): (1,10,3) -0.934345 (1,11,2) -0.618402 (1,11,4) 1.43387 (1,12,3) 3.687412E-02
(1,11,4): (1,10,4) -0.751051 (1,11,3) -1.43387 (1,11,5) 2.54890 (1,12,4) -0.512214
(1,11,5): (1,10,5) 3.92277 (1,11,4) -2.54890 (1,11,6) 0.375892 (1,12,5) -1.98579
(1,11,6): (1,10,6) 2.51092 (1,11,5) -0.375892 (1,11,7) -0.366035 (1,12,6) -2.03146
(1,11,7): (1,10,7) 3.90881 (1,11,6) 0.366035 (1,11,8) -2.53200 (1,12,7) -1.97916
(1,11,8): (1,10,8) -0.790051 (1,11,7) 2.53200 (1,11,9) -1.39765 (1,12,8) -0.494647
(1,11,9): (1,10,9) -1.03002 (1,11,8) 1.39765 (1,11,10) -0.531544 (1,12,9) 7.432703E-02
(1,11,10): (1,10,10) -0.796532 (1,11,9) 0.531544 (1,12,10) 0.203895
(1,12,1): (1,11,1) -0.131433 (1,12,2) 0.223992 (1,13,1) -2.771125E-02
(1,12,2): (1,11,2) -0.138664 (1,12,1) -0.223992 (1,12,3) 0.516131 (1,13,2) -8.747973E-02
(1,12,3): (1,11,3) -3.687412E-02 (1,12,2) -0.516131 (1,12,4) 0.879973 (1,13,3) -0.263770
(1,12,4): (1,11,4) 0.512214 (1,12,3) -0.879973 (1,12,5) 1.06785 (1,13,4) -0.650900
(1,12,5): (1,11,5) 1.98579 (1,12,4) -1.06785 (1,12,6) 0.330799 (1,13,5) -1.22318
(1,12,6): (1,11,6) 2.03146 (1,12,5) -0.330799 (1,12,7) -0.314423 (1,13,6) -1.36760
(1,12,7): (1,11,7) 1.97916 (1,12,6) 0.314423 (1,12,8) -1.04009 (1,13,7) -1.22301
(1,12,8): (1,11,8) 0.494647 (1,12,7) 1.04009 (1,12,9) -0.823831 (1,13,8) -0.651261
(1,12,9): (1,11,9) -7.432703E-02 (1,12,8) 0.823831 (1,12,10) -0.401559 (1,13,9) -0.268352
(1,12,10): (1,11,10) -0.203895 (1,12,9) 0.401559 (1,13,10) -0.110199
(1,13,1): (1,12,1) 2.771125E-02 (1,13,2) 0.164143 (1,14,1) -7.778043E-02
(1,13,2): (1,12,2) 8.747973E-02 (1,13,1) -0.164143 (1,13,3) 0.339407 (1,14,2) -0.134954
(1,13,3): (1,12,3) 0.263770 (1,13,2) -0.339407 (1,13,4) 0.491995 (1,14,3) -0.267277
(1,13,4): (1,12,4) 0.650900 (1,13,3) -0.491995 (1,13,5) 0.496396 (1,14,4) -0.486847
(1,13,5): (1,12,5) 1.22318 (1,13,4) -0.496396 (1,13,6) 0.187742 (1,14,5) -0.734799
(1,13,6): (1,12,6) 1.36760 (1,13,5) -0.187742 (1,13,7) -0.171221 (1,14,6) -0.822727
(1,13,7): (1,12,7) 1.22301 (1,13,6) 0.171221 (1,13,8) -0.469310 (1,14,7) -0.737427
(1,13,8): (1,12,8) 0.651261 (1,13,7) 0.469310 (1,13,9) -0.440291 (1,14,8) -0.494469
(1,13,9): (1,12,9) 0.268352 (1,13,8) 0.440291 (1,13,10) -0.243201 (1,14,9) -0.286521
(1,13,10): (1,12,10) 0.110199 (1,13,9) 0.243201 (1,14,10) -0.181028
(1,14,1): (1,13,1) 7.778043E-02 (1,14,2) 0.106952 (1,15,1) -5.488005E-02
(1,14,2): (1,13,2) 0.134954 (1,14,1) -0.106952 (1,14,3) 0.206992 (1,15,2) -8.595752E-02
(1,14,3): (1,13,3) 0.267277 (1,14,2) -0.206992 (1,14,4) 0.272414 (1,15,3) -0.151658
(1,14,4): (1,13,4) 0.486847 (1,14,3) -0.272414 (1,14,5) 0.249009 (1,15,4) -0.248177
(1,14,5): (1,13,5) 0.734799 (1,14,4) -0.249009 (1,14,6) 0.100342 (1,15,5) -0.344819
(1,14,6): (1,13,6) 0.822727 (1,14,5) -0.100342 (1,14,7) -8.644753E-02 (1,15,6) -0.382548
(1,14,7): (1,13,7) 0.737427 (1,14,6) 8.644753E-02 (1,14,8) -0.226974 (1,15,7) -0.346977
(1,14,8): (1,13,8) 0.494469 (1,14,7) 0.226974 (1,14,9) -0.232452 (1,15,8) -0.254178
(1,14,9): (1,13,9) 0.286521 (1,14,8) 0.232452 (1,14,10) -0.137752 (1,15,9) -0.165784
(1,14,10): (1,13,10) 0.181028 (1,14,9) 0.137752 (1,15,10) -0.116775
(1,15,1): (1,14,1) 5.488005E-02 (1,15,2) 7.586836E-02
(1,15,2): (1,14,2) 8.595752E-02 (1,15,1) -7.586836E-02 (1,15,3) 0.141255
(1,15,3): (1,14,3) 0.151658 (1,15,2) -0.141255 (1,15,4) 0.175872
(1,15,4): (1,14,4) 0.248177 (1,15,3) -0.175872 (1,15,5) 0.152456
(1,15,5): (1,14,5) 0.344819 (1,15,4) -0.152456 (1,15,6) 6.271658E-02
(1,15,6): (1,14,6) 0.382548 (1,15,5) -6.271658E-02 (1,15,7) -5.097858E-02
(1,15,7): (1,14,7) 0.346977 (1,15,6) 5.097858E-02 (1,15,8) -0.134283
(1,15,8): (1,14,8) 0.254178 (1,15,7) 0.134283 (1,15,9) -0.144076
(1,15,9): (1,14,9) 0.165784 (1,15,8) 0.144076 (1,15,10) -8.875685E-02
(1,15,10): (1,14,10) 0.116775 (1,15,9) 8.875685E-02

 WEL PACKAGE (WEL-1) FLOW RATES   PERIOD      2   STEP       95
 ----------------------------------------------------------------------------------------
   NUMBER   CELLID                    RATE       NAME                                    
 ----------------------------------------------------------------------------------------
     1      (1,8,6)              -204.40173      WEL                                     
 ----------------------------------------------------------------------------------------




 DRN PACKAGE (DRN-0) FLOW RATES   PERIOD      2   STEP       95
 ----------------------------------------------------------------------------------------
   NUMBER   CELLID                    RATE       NAME                                    
 ----------------------------------------------------------------------------------------
     1      (1,1,1)               0.0000000      SURF                                    
     2      (1,1,2)               0.0000000      SURF                                    
     3      (1,1,3)               0.0000000      SURF                                    
     4      (1,1,4)               0.0000000      SURF                                    
     5      (1,1,5)               0.0000000      SURF                                    
     6      (1,1,6)               0.0000000      SURF                                    
     7      (1,1,7)               0.0000000      SURF                                    
     8      (1,1,8)               0.0000000      SURF                                    
     9      (1,1,9)               0.0000000      SURF                                    
     10     (1,1,10)              0.0000000      SURF                                    
     11     (1,2,1)               0.0000000      SURF                                    
     12     (1,2,2)               0.0000000      SURF                                    
     13     (1,2,3)               0.0000000      SURF                                    
     14     (1,2,4)               0.0000000      SURF                                    
     15     (1,2,5)               0.0000000      SURF                                    
     16     (1,2,6)               0.0000000      SURF                                    
     17     (1,2,7)               0.0000000      SURF                                    
     18     (1,2,8)               0.0000000      SURF                                    
     19     (1,2,9)               0.0000000      SURF                                    
     20     (1,2,10)              0.0000000      SURF                                    
     21     (1,3,1)               0.0000000      SURF                                    
     22     (1,3,2)               0.0000000      SURF                                    
     23     (1,3,3)               0.0000000      SURF                                    
     24     (1,3,4)               0.0000000      SURF                                    
     25     (1,3,5)               0.0000000      SURF                                    
     26     (1,3,6)               0.0000000      SURF                                    
     27     (1,3,7)               0.0000000      SURF                                    
     28     (1,3,8)               0.0000000      SURF                                    
     29     (1,3,9)               0.0000000      SURF                                    
     30     (1,3,10)              0.0000000      SURF                                    
     31     (1,4,1)               0.0000000      SURF                                    
     32     (1,4,2)               0.0000000      SURF                                    
     33     (1,4,3)               0.0000000      SURF                                    
     34     (1,4,4)               0.0000000      SURF                                    
     35     (1,4,5)               0.0000000      SURF                                    
     36     (1,4,6)               0.0000000      SURF                                    
     37     (1,4,7)               0.0000000      SURF                                    
     38     (1,4,8)               0.0000000      SURF                                    
     39     (1,4,9)               0.0000000      SURF                                    
     40     (1,4,10)              0.0000000      SURF                                    
     41     (1,5,1)               0.0000000      SURF                                    
     42     (1,5,2)               0.0000000      SURF                                    
     43     (1,5,3)               0.0000000      SURF                                    
     44     (1,5,4)               0.0000000      SURF                                    
     45     (1,5,5)               0.0000000      SURF                                    
     46     (1,5,6)               0.0000000      SURF                                    
     47     (1,5,7)               0.0000000      SURF                                    
     48     (1,5,8)               0.0000000      SURF                                    
     49     (1,5,9)               0.0000000      SURF                                    
     50     (1,5,10)              0.0000000      SURF                                    
     51     (1,6,1)               0.0000000      SURF                                    
     52     (1,6,2)               0.0000000      SURF                                    
     53     (1,6,3)               0.0000000      SURF                                    
     54     (1,6,4)               0.0000000      SURF                                    
     55     (1,6,5)              -1.13240288E-02 SURF                                    
     56     (1,6,6)               0.0000000      SURF                                    
     57     (1,6,7)              -3.15776560E-07 SURF                                    
     58     (1,6,8)               0.0000000      SURF                                    
     59     (1,6,9)               0.0000000      SURF                                    
     60     (1,6,10)              0.0000000      SURF                                    
     61     (1,7,1)               0.0000000      SURF                                    
     62     (1,7,2)               0.0000000      SURF                                    
     63     (1,7,3)               0.0000000      SURF                                    
     64     (1,7,4)               0.0000000      SURF                                    
     65     (1,7,5)               0.0000000      SURF                                    
     66     (1,7,6)               0.0000000      SURF                                    
     67     (1,7,7)               0.0000000      SURF                                    
     68     (1,7,8)               0.0000000      SURF                                    
     69     (1,7,9)               0.0000000      SURF                                    
     70     (1,7,10)              0.0000000      SURF                                    
     71     (1,8,1)               0.0000000      SURF                                    
     72     (1,8,2)               0.0000000      SURF                                    
     73     (1,8,3)               0.0000000      SURF                                    
     74     (1,8,4)               0.0000000      SURF                                    
     75     (1,8,5)               0.0000000      SURF                                    
     76     (1,8,6)               0.0000000      SURF                                    
     77     (1,8,7)               0.0000000      SURF                                    
     78     (1,8,8)               0.0000000      SURF                                    
     79     (1,8,9)               0.0000000      SURF                                    
     80     (1,8,10)              0.0000000      SURF                                    
     81     (1,9,1)               0.0000000      SURF                                    
     82     (1,9,2)               0.0000000      SURF                                    
     83     (1,9,3)               0.0000000      SURF                                    
     84     (1,9,4)               0.0000000      SURF                                    
     85     (1,9,5)               0.0000000      SURF                                    
     86     (1,9,6)               0.0000000      SURF                                    
     87     (1,9,7)               0.0000000      SURF                                    
     88     (1,9,8)               0.0000000      SURF                                    
     89     (1,9,9)               0.0000000      SURF                                    
     90     (1,9,10)              0.0000000      SURF                                    
     91     (1,10,1)              0.0000000      SURF                                    
     92     (1,10,2)              0.0000000      SURF                                    
     93     (1,10,3)              0.0000000      SURF                                    
     94     (1,10,4)              0.0000000      SURF                                    
     95     (1,10,5)              0.0000000      SURF                                    
     96     (1,10,6)              0.0000000      SURF                                    
     97     (1,10,7)              0.0000000      SURF                                    
     98     (1,10,8)              0.0000000      SURF                                    
     99     (1,10,9)              0.0000000      SURF                                    
    100     (1,10,10)             0.0000000      SURF                                    
    101     (1,11,1)              0.0000000      SURF                                    
    102     (1,11,2)              0.0000000      SURF                                    
    103     (1,11,3)              0.0000000      SURF                                    
    104     (1,11,4)              0.0000000      SURF                                    
    105     (1,11,5)              0.0000000      SURF                                    
    106     (1,11,6)              0.0000000      SURF                                    
    107     (1,11,7)              0.0000000      SURF                                    
    108     (1,11,8)              0.0000000      SURF                                    
    109     (1,11,9)              0.0000000      SURF                                    
    110     (1,11,10)             0.0000000      SURF                                    
    111     (1,12,1)              0.0000000      SURF                                    
    112     (1,12,2)              0.0000000      SURF                                    
    113     (1,12,3)              0.0000000      SURF                                    
    114     (1,12,4)              0.0000000      SURF                                    
    115     (1,12,5)              0.0000000      SURF                                    
    116     (1,12,6)              0.0000000      SURF                                    
    117     (1,12,7)              0.0000000      SURF                                    
    118     (1,12,8)              0.0000000      SURF                                    
    119     (1,12,9)              0.0000000      SURF                                    
    120     (1,12,10)             0.0000000      SURF                                    
    121     (1,13,1)              0.0000000      SURF                                    
    122     (1,13,2)              0.0000000      SURF                                    
    123     (1,13,3)              0.0000000      SURF                                    
    124     (1,13,4)              0.0000000      SURF                                    
    125     (1,13,5)              0.0000000      SURF                                    
    126     (1,13,6)              0.0000000      SURF                                    
    127     (1,13,7)              0.0000000      SURF                                    
    128     (1,13,8)              0.0000000      SURF                                    
    129     (1,13,9)              0.0000000      SURF                                    
    130     (1,13,10)             0.0000000      SURF                                    
    131     (1,14,1)              0.0000000      SURF                                    
    132     (1,14,2)              0.0000000      SURF                                    
    133     (1,14,3)              0.0000000      SURF                                    
    134     (1,14,4)              0.0000000      SURF                                    
    135     (1,14,5)              0.0000000      SURF                                    
    136     (1,14,6)              0.0000000      SURF                                    
    137     (1,14,7)              0.0000000      SURF                                    
    138     (1,14,8)              0.0000000      SURF                                    
    139     (1,14,9)              0.0000000      SURF                                    
    140     (1,14,10)             0.0000000      SURF                                    
    141     (1,15,1)              0.0000000      SURF                                    
    142     (1,15,2)              0.0000000      SURF                                    
    143     (1,15,3)              0.0000000      SURF                                    
    144     (1,15,4)              0.0000000      SURF                                    
    145     (1,15,5)              0.0000000      SURF                                    
    146     (1,15,6)              0.0000000      SURF                                    
    147     (1,15,7)              0.0000000      SURF                                    
    148     (1,15,8)              0.0000000      SURF                                    
    149     (1,15,9)              0.0000000      SURF                                    
    150     (1,15,10)             0.0000000      SURF                                    
 ----------------------------------------------------------------------------------------




 API PACKAGE (MAR) FLOW RATES   PERIOD      2   STEP       95
 -----------------------------------------------
   NUMBER   CELLID                    RATE      
 -----------------------------------------------
     1      (1,6,5)               35.905846     
     2      (1,6,6)               35.905846     
     3      (1,6,7)               35.905846     
     4      (1,10,5)              32.228065     
     5      (1,10,6)              32.228065     
     6      (1,10,7)              32.228065     
 -----------------------------------------------



1
  HEAD IN LAYER   1 AT END OF TIME STEP  95 IN STRESS PERIOD    2
  ---------------------------------------------------------------------------

            1           2           3           4           5           6           7           8           9          10
 ........................................................................................................................
   1   2.5882E-02  3.3890E-02  4.8742E-02  6.7166E-02  8.3115E-02  8.9712E-02  8.4481E-02  7.0589E-02  5.5664E-02  4.6458E-02
   2   3.1766E-02  4.2983E-02  6.4635E-02  9.3084E-02  0.1191      0.1297      0.1207      9.7151E-02  7.3051E-02  5.8775E-02
   3   4.0199E-02  5.7405E-02  9.2964E-02  0.1446      0.1968      0.2167      0.1987      0.1495      0.1034      7.8052E-02
   4   4.3678E-02  6.7474E-02  0.1224      0.2162      0.3301      0.3661      0.3320      0.2211      0.1334      9.0733E-02
   5   3.0982E-02  5.5123E-02  0.1238      0.2815      0.5555      0.6012      0.5567      0.2847      0.1312      7.2262E-02
   6  -6.7020E-03 -2.6899E-03  3.5275E-02  0.2283       1.000      0.9286       1.000      0.2276      3.3115E-02 -6.7667E-03
   7  -6.0227E-02 -0.1076     -0.2253     -0.4703     -0.9755      -2.169     -0.9771     -0.4757     -0.2402     -0.1445    
   8  -8.8220E-02 -0.1676     -0.3935     -0.9914      -2.741      -9.253      -2.744     -0.9995     -0.4151     -0.2223    
   9  -6.2962E-02 -0.1123     -0.2362     -0.4978      -1.036      -2.243      -1.038     -0.5035     -0.2518     -0.1505    
  10  -1.1381E-02 -1.0648E-02  1.6119E-02  0.1752      0.8529      0.7605      0.8525      0.1740      1.2854E-02 -1.7025E-02
  11   2.5801E-02  4.7374E-02  0.1086      0.2485      0.4914      0.5271      0.4923      0.2510      0.1147      6.2136E-02
  12   3.8893E-02  6.1156E-02  0.1122      0.1985      0.3021      0.3341      0.3037      0.2028      0.1220      8.2359E-02
  13   3.6133E-02  5.2461E-02  8.6112E-02  0.1347      0.1834      0.2018      0.1850      0.1389      9.5519E-02  7.1429E-02
  14   2.8383E-02  3.9036E-02  5.9613E-02  8.6620E-02  0.1112      0.1212      0.1126      9.0176E-02  6.7138E-02  5.3455E-02
  15   2.2910E-02  3.0474E-02  4.4537E-02  6.2016E-02  7.7145E-02  8.3365E-02  7.8309E-02  6.4985E-02  5.0670E-02  4.1839E-02

 HEAD WILL BE SAVED ON UNIT 1100 AT END OF TIME STEP   95, STRESS PERIOD    2


  VOLUME BUDGET FOR ENTIRE MODEL AT END OF TIME STEP   95, STRESS PERIOD   2
  ---------------------------------------------------------------------------------------------------

     CUMULATIVE VOLUME      L**3       RATES FOR THIS TIME STEP      L**3/T          PACKAGE NAME    
     ------------------                 ------------------------                     ----------------

           IN:                                      IN:
           ---                                      ---
              STO-SS =          25.9285                STO-SS =       7.2792E-03     STORAGE                          
              STO-SY =       63514.8273                STO-SY =          15.0524     STORAGE                          
                 WEL =           0.0000                   WEL =           0.0000     WEL-1                            
                 DRN =           0.0000                   DRN =           0.0000     DRN-0                            
                 API =      194399.4162                   API =         204.4017     MAR                              
                 CHD =       2.0279E-08                   CHD =           0.0000     CHD_0                            

            TOTAL IN =      257940.1720              TOTAL IN =         219.4614

          OUT:                                     OUT:
          ----                                     ----
              STO-SS =          22.4842                STO-SS =       7.6114E-03     STORAGE                          
              STO-SY =       43949.1037                STO-SY =          15.0407     STORAGE                          
                 WEL =      213968.2224                   WEL =         204.4017     WEL-1                            
                 DRN =           0.3617                   DRN =       1.1324E-02     DRN-0                            
                 API =           0.0000                   API =           0.0000     MAR                              
                 CHD =       2.0705E-08                   CHD =           0.0000     CHD_0                            

           TOTAL OUT =      257940.1720             TOTAL OUT =         219.4614

            IN - OUT =      -8.5746E-07              IN - OUT =       1.9841E-09

 PERCENT DISCREPANCY =          -0.00     PERCENT DISCREPANCY =           0.00




         TIME SUMMARY AT END OF TIME STEP   95 IN STRESS PERIOD    2
                    SECONDS     MINUTES      HOURS       DAYS        YEARS
                    -----------------------------------------------------------
   TIME STEP LENGTH 8.64000E+05  14400.      240.00      10.000     2.73785E-02
 STRESS PERIOD TIME 8.20800E+07 1.36800E+06  22800.      950.00      2.6010    
         TOTAL TIME 8.21664E+07 1.36944E+06  22824.      951.00      2.6037    


end timestep


start timestep kper="2" kstp="96" mode="normal"

 UBDSV1 SAVING           STO-SS ON UNIT   1099 AT TIME STEP     96, STRESS PERIOD      2
 UBDSV1 SAVING           STO-SY ON UNIT   1099 AT TIME STEP     96, STRESS PERIOD      2
 UBDSV1 SAVING     FLOW-JA-FACE ON UNIT   1099 AT TIME STEP     96, STRESS PERIOD      2
 UBDSV06 SAVING       DATA-SPDIS IN MODEL GWF              PACKAGE NPF             CONNECTED TO MODEL GWF              PACKAGE NPF              ON UNIT   1099 AT TIME STEP     96, STRESS PERIOD      2
 UBDSV06 SAVING              WEL IN MODEL GWF              PACKAGE GWF             CONNECTED TO MODEL GWF              PACKAGE WEL-1            ON UNIT   1099 AT TIME STEP     96, STRESS PERIOD      2
 UBDSV06 SAVING              DRN IN MODEL GWF              PACKAGE GWF             CONNECTED TO MODEL GWF              PACKAGE DRN-0            ON UNIT   1099 AT TIME STEP     96, STRESS PERIOD      2
 UBDSV06 SAVING              API IN MODEL GWF              PACKAGE GWF             CONNECTED TO MODEL GWF              PACKAGE MAR              ON UNIT   1099 AT TIME STEP     96, STRESS PERIOD      2
 UBDSV06 SAVING              CHD IN MODEL GWF              PACKAGE GWF             CONNECTED TO MODEL GWF              PACKAGE CHD_0            ON UNIT   1099 AT TIME STEP     96, STRESS PERIOD      2

    CALCULATED INTERCELL FLOW FOR PERIOD 2 STEP 96
(1,1,1): (1,1,2) 8.138946E-02 (1,2,1) 5.894075E-02
(1,1,2): (1,1,1) -8.138946E-02 (1,1,3) 0.151042 (1,2,2) 9.122975E-02
(1,1,3): (1,1,2) -0.151042 (1,1,4) 0.187518 (1,2,3) 0.159880
(1,1,4): (1,1,3) -0.187518 (1,1,5) 0.162480 (1,2,4) 0.261581
(1,1,5): (1,1,4) -0.162480 (1,1,6) 6.733294E-02 (1,2,5) 0.364362
(1,1,6): (1,1,5) -6.733294E-02 (1,1,7) -5.307108E-02 (1,2,6) 0.404756
(1,1,7): (1,1,6) 5.307108E-02 (1,1,8) -0.141168 (1,2,7) 0.366793
(1,1,8): (1,1,7) 0.141168 (1,1,9) -0.151559 (1,2,8) 0.268177
(1,1,9): (1,1,8) 0.151559 (1,1,10) -9.338431E-02 (1,2,9) 0.175033
(1,1,10): (1,1,9) 9.338431E-02 (1,2,10) 0.123745
(1,2,1): (1,1,1) -5.894075E-02 (1,2,2) 0.113686 (1,3,1) 8.388213E-02
(1,2,2): (1,1,2) -9.122975E-02 (1,2,1) -0.113686 (1,2,3) 0.219733 (1,3,2) 0.144167
(1,2,3): (1,1,3) -0.159880 (1,2,2) -0.219733 (1,2,4) 0.289247 (1,3,3) 0.284956
(1,2,4): (1,1,4) -0.261581 (1,2,3) -0.289247 (1,2,5) 0.265162 (1,3,4) 0.521337
(1,2,5): (1,1,5) -0.364362 (1,2,4) -0.265162 (1,2,6) 0.107611 (1,3,5) 0.791555
(1,2,6): (1,1,6) -0.404756 (1,2,5) -0.107611 (1,2,7) -9.091903E-02 (1,3,6) 0.888708
(1,2,7): (1,1,7) -0.366793 (1,2,6) 9.091903E-02 (1,2,8) -0.239663 (1,3,7) 0.794553
(1,2,8): (1,1,8) -0.268177 (1,2,7) 0.239663 (1,2,9) -0.244682 (1,3,8) 0.529765
(1,2,9): (1,1,9) -0.175033 (1,2,8) 0.244682 (1,2,10) -0.144657 (1,3,9) 0.305666
(1,2,10): (1,1,10) -0.123745 (1,2,9) 0.144657 (1,3,10) 0.193011
(1,3,1): (1,2,1) -8.388213E-02 (1,3,2) 0.173988 (1,4,1) 3.258687E-02
(1,3,2): (1,2,2) -0.144167 (1,3,1) -0.173988 (1,3,3) 0.360627 (1,4,2) 9.875412E-02
(1,3,3): (1,2,3) -0.284956 (1,3,2) -0.360627 (1,3,4) 0.525638 (1,4,3) 0.294968
(1,3,4): (1,2,4) -0.521337 (1,3,3) -0.525638 (1,3,5) 0.534719 (1,4,4) 0.728440
(1,3,5): (1,2,5) -0.791555 (1,3,4) -0.534719 (1,3,6) 0.204137 (1,4,5) 1.37399
(1,3,6): (1,2,6) -0.888708 (1,3,5) -0.204137 (1,3,7) -0.184448 (1,4,6) 1.54583
(1,3,7): (1,2,7) -0.794553 (1,3,6) 0.184448 (1,3,8) -0.503718 (1,4,7) 1.37401
(1,3,8): (1,2,8) -0.529765 (1,3,7) 0.503718 (1,3,9) -0.468648 (1,4,8) 0.729197
(1,3,9): (1,2,9) -0.305666 (1,3,8) 0.468648 (1,3,10) -0.257258 (1,4,9) 0.300501
(1,3,10): (1,2,10) -0.193011 (1,3,9) 0.257258 (1,4,10) 0.124335
(1,4,1): (1,3,1) -3.258687E-02 (1,4,2) 0.240248 (1,5,1) -0.131766
(1,4,2): (1,3,2) -9.875412E-02 (1,4,1) -0.240248 (1,4,3) 0.557341 (1,5,2) -0.129068
(1,4,3): (1,3,3) -0.294968 (1,4,2) -0.557341 (1,4,4) 0.960065 (1,5,3) 9.494671E-03
(1,4,4): (1,3,4) -0.728440 (1,4,3) -0.960065 (1,4,5) 1.17911 (1,5,4) 0.666297
(1,4,5): (1,3,5) -1.37399 (1,4,4) -1.17911 (1,4,6) 0.374158 (1,5,5) 2.37434
(1,4,6): (1,3,6) -1.54583 (1,4,5) -0.374158 (1,4,7) -0.354420 (1,5,6) 2.48823
(1,4,7): (1,3,7) -1.37401 (1,4,6) 0.354420 (1,4,8) -1.14717 (1,5,7) 2.36753
(1,4,8): (1,3,8) -0.729197 (1,4,7) 1.14717 (1,4,9) -0.898033 (1,5,8) 0.648088
(1,4,9): (1,3,9) -0.300501 (1,4,8) 0.898033 (1,4,10) -0.433652 (1,5,9) -2.858174E-02
(1,4,10): (1,3,10) -0.124335 (1,4,9) 0.433652 (1,5,10) -0.192913
(1,5,1): (1,4,1) 0.131766 (1,5,2) 0.242949 (1,6,1) -0.383409
(1,5,2): (1,4,2) 0.129068 (1,5,1) -0.242949 (1,5,3) 0.696674 (1,6,2) -0.587371
(1,5,3): (1,4,3) -9.494671E-03 (1,5,2) -0.696674 (1,5,4) 1.62281 (1,6,3) -0.903569
(1,5,4): (1,4,4) -0.666297 (1,5,3) -1.62281 (1,5,5) 2.89505 (1,6,4) -0.553763
(1,5,5): (1,4,5) -2.37434 (1,5,4) -2.89505 (1,5,6) 0.486202 (1,6,5) 4.88395
(1,5,6): (1,4,6) -2.48823 (1,5,5) -0.486202 (1,5,7) -0.473140 (1,6,6) 3.57291
(1,5,7): (1,4,7) -2.36753 (1,5,6) 0.473140 (1,5,8) -2.87435 (1,6,7) 4.87040
(1,5,8): (1,4,8) -0.648088 (1,5,7) 2.87435 (1,5,9) -1.58066 (1,6,8) -0.594695
(1,5,9): (1,4,9) 2.858174E-02 (1,5,8) 1.58066 (1,5,10) -0.598635 (1,6,9) -1.00250
(1,5,10): (1,4,10) 0.192913 (1,5,9) 0.598635 (1,6,10) -0.804317
(1,6,1): (1,5,1) 0.383409 (1,6,2) 3.967873E-02 (1,7,1) -0.539649
(1,6,2): (1,5,2) 0.587371 (1,6,1) -3.967873E-02 (1,6,3) 0.381107 (1,7,2) -1.05395
(1,6,3): (1,5,3) 0.903569 (1,6,2) -0.381107 (1,6,4) 1.97630 (1,7,3) -2.62103
(1,6,4): (1,5,4) 0.553763 (1,6,3) -1.97630 (1,6,5) 8.49321 (1,7,4) -7.15279
(1,6,5): (1,5,5) -4.88395 (1,6,4) -8.49321 (1,6,6) -0.783303 (1,7,5) -21.7393
(1,6,6): (1,5,6) -3.57291 (1,6,5) 0.783303 (1,6,7) 0.783302 (1,7,6) -33.8634
(1,6,7): (1,5,7) -4.87040 (1,6,6) -0.783302 (1,6,8) -8.50134 (1,7,7) -21.7575
(1,6,8): (1,5,8) 0.594695 (1,6,7) 8.50134 (1,6,9) -1.99241 (1,7,8) -7.20171
(1,6,9): (1,5,9) 1.00250 (1,6,8) 1.99241 (1,6,10) -0.401213 (1,7,9) -2.74970
(1,6,10): (1,5,10) 0.804317 (1,6,9) 0.401213 (1,7,10) -1.38360
(1,7,1): (1,6,1) 0.539649 (1,7,2) -0.471655 (1,8,1) -0.280341
(1,7,2): (1,6,2) 1.05395 (1,7,1) 0.471655 (1,7,3) -1.16508 (1,8,2) -0.596181
(1,7,3): (1,6,3) 2.62103 (1,7,2) 1.16508 (1,7,4) -2.39369 (1,8,3) -1.64818
(1,7,4): (1,6,4) 7.15279 (1,7,3) 2.39369 (1,7,5) -4.81048 (1,8,4) -4.97131
(1,7,5): (1,6,5) 21.7393 (1,7,4) 4.81048 (1,7,6) -10.7694 (1,8,5) -15.9373
(1,7,6): (1,6,6) 33.8634 (1,7,5) 10.7694 (1,7,7) 10.7525 (1,8,6) -55.4660
(1,7,7): (1,6,7) 21.7575 (1,7,6) -10.7525 (1,7,8) 4.77037 (1,8,7) -15.9438
(1,7,8): (1,6,8) 7.20171 (1,7,7) -4.77037 (1,7,9) 2.29588 (1,8,8) -4.99394
(1,7,9): (1,6,9) 2.74970 (1,7,8) -2.29588 (1,7,10) 0.942290 (1,8,9) -1.71197
(1,7,10): (1,6,10) 1.38360 (1,7,9) -0.942290 (1,8,10) -0.770970
(1,8,1): (1,7,1) 0.280341 (1,8,2) -0.788112 (1,9,1) 0.252481
(1,8,2): (1,7,2) 0.596181 (1,8,1) 0.788112 (1,8,3) -2.22331 (1,9,2) 0.548027
(1,8,3): (1,7,3) 1.64818 (1,8,2) 2.22331 (1,8,4) -5.74376 (1,9,3) 1.53549
(1,8,4): (1,7,4) 4.97131 (1,8,3) 5.74376 (1,8,5) -15.7555 (1,9,4) 4.68751
(1,8,5): (1,7,5) 15.9373 (1,8,4) 15.7555 (1,8,6) -47.2528 (1,9,5) 15.2670
(1,8,6): (1,7,6) 55.4660 (1,8,5) 47.2528 (1,8,7) 47.2157 (1,9,6) 54.3470
(1,8,7): (1,7,7) 15.9438 (1,8,6) -47.2157 (1,8,8) 15.6910 (1,9,7) 15.2716
(1,8,8): (1,7,8) 4.99394 (1,8,7) -15.6910 (1,8,9) 5.59873 (1,9,8) 4.70670
(1,8,9): (1,7,9) 1.71197 (1,8,8) -5.59873 (1,8,10) 1.88498 (1,9,9) 1.59266
(1,8,10): (1,7,10) 0.770970 (1,8,9) -1.88498 (1,9,10) 0.708788
(1,9,1): (1,8,1) -0.252481 (1,9,2) -0.491844 (1,10,1) 0.519621
(1,9,2): (1,8,2) -0.548027 (1,9,1) 0.491844 (1,9,3) -1.22883 (1,10,2) 1.01965
(1,9,3): (1,8,3) -1.53549 (1,9,2) 1.22883 (1,9,4) -2.55658 (1,10,3) 2.53170
(1,9,4): (1,8,4) -4.68751 (1,9,3) 2.55658 (1,9,5) -5.12079 (1,10,4) 6.84836
(1,9,5): (1,8,5) -15.2670 (1,9,4) 5.12079 (1,9,6) -10.8106 (1,10,5) 20.4948
(1,9,6): (1,8,6) -54.3470 (1,9,5) 10.8106 (1,9,7) 10.7920 (1,10,6) 32.3013
(1,9,7): (1,8,7) -15.2716 (1,9,6) -10.7920 (1,9,8) 5.07874 (1,10,7) 20.5099
(1,9,8): (1,8,8) -4.70670 (1,9,7) -5.07874 (1,9,9) 2.45527 (1,10,8) 6.89446
(1,9,9): (1,8,9) -1.59266 (1,9,8) -2.45527 (1,9,10) 0.998423 (1,10,9) 2.65537
(1,9,10): (1,8,10) -0.708788 (1,9,9) -0.998423 (1,10,10) 1.33933
(1,10,1): (1,9,1) -0.519621 (1,10,2) 5.549233E-03 (1,11,1) 0.378252
(1,10,2): (1,9,2) -1.01965 (1,10,1) -5.549233E-03 (1,10,3) 0.264552 (1,11,2) 0.589319
(1,10,3): (1,9,3) -2.53170 (1,10,2) -0.264552 (1,10,4) 1.61231 (1,11,3) 0.942265
(1,10,4): (1,9,4) -6.84836 (1,10,3) -1.61231 (1,10,5) 7.34247 (1,11,4) 0.761574
(1,10,5): (1,9,5) -20.4948 (1,10,4) -7.34247 (1,10,6) -1.00476 (1,11,5) -3.90479
(1,10,6): (1,9,6) -32.3013 (1,10,5) 1.00476 (1,10,7) 1.00070 (1,11,6) -2.49257
(1,10,7): (1,9,7) -20.5099 (1,10,6) -1.00070 (1,10,8) -7.35237 (1,11,7) -3.89049
(1,10,8): (1,9,8) -6.89446 (1,10,7) 7.35237 (1,10,9) -1.63393 (1,11,8) 0.801369
(1,10,9): (1,9,9) -2.65537 (1,10,8) 1.63393 (1,10,10) -0.297030 (1,11,9) 1.03942
(1,10,10): (1,9,10) -1.33933 (1,10,9) 0.297030 (1,11,10) 0.805221
(1,11,1): (1,10,1) -0.378252 (1,11,2) 0.215838 (1,12,1) 0.135923
(1,11,2): (1,10,2) -0.589319 (1,11,1) -0.215838 (1,11,3) 0.616383 (1,12,2) 0.144107
(1,11,3): (1,10,3) -0.942265 (1,11,2) -0.616383 (1,11,4) 1.43039 (1,12,3) 4.414461E-02
(1,11,4): (1,10,4) -0.761574 (1,11,3) -1.43039 (1,11,5) 2.54406 (1,12,4) -0.502197
(1,11,5): (1,10,5) 3.90479 (1,11,4) -2.54406 (1,11,6) 0.374461 (1,12,5) -1.97206
(1,11,6): (1,10,6) 2.49257 (1,11,5) -0.374461 (1,11,7) -0.364629 (1,12,6) -2.01666
(1,11,7): (1,10,7) 3.89049 (1,11,6) 0.364629 (1,11,8) -2.52727 (1,12,7) -1.96516
(1,11,8): (1,10,8) -0.801369 (1,11,7) 2.52727 (1,11,9) -1.39446 (1,12,8) -0.483982
(1,11,9): (1,10,9) -1.03942 (1,11,8) 1.39446 (1,11,10) -0.530082 (1,12,9) 8.281679E-02
(1,11,10): (1,10,10) -0.805221 (1,11,9) 0.530082 (1,12,10) 0.211347
(1,12,1): (1,11,1) -0.135923 (1,12,2) 0.224028 (1,13,1) -2.519548E-02
(1,12,2): (1,11,2) -0.144107 (1,12,1) -0.224028 (1,12,3) 0.515956 (1,13,2) -8.433222E-02
(1,12,3): (1,11,3) -4.414461E-02 (1,12,2) -0.515956 (1,12,4) 0.879230 (1,13,3) -0.259402
(1,12,4): (1,11,4) 0.502197 (1,12,3) -0.879230 (1,12,5) 1.06662 (1,13,4) -0.644817
(1,12,5): (1,11,5) 1.97206 (1,12,4) -1.06662 (1,12,6) 0.330431 (1,13,5) -1.21526
(1,12,6): (1,11,6) 2.01666 (1,12,5) -0.330431 (1,12,7) -0.313805 (1,13,6) -1.35898
(1,12,7): (1,11,7) 1.96516 (1,12,6) 0.313805 (1,12,8) -1.03858 (1,13,7) -1.21494
(1,12,8): (1,11,8) 0.483982 (1,12,7) 1.03858 (1,12,9) -0.822802 (1,13,8) -0.644818
(1,12,9): (1,11,9) -8.281679E-02 (1,12,8) 0.822802 (1,12,10) -0.401150 (1,13,9) -0.263291
(1,12,10): (1,11,10) -0.211347 (1,12,9) 0.401150 (1,13,10) -0.105870
(1,13,1): (1,12,1) 2.519548E-02 (1,13,2) 0.164810 (1,14,1) -7.693414E-02
(1,13,2): (1,12,2) 8.433222E-02 (1,13,1) -0.164810 (1,13,3) 0.340448 (1,14,2) -0.133829
(1,13,3): (1,12,3) 0.259402 (1,13,2) -0.340448 (1,13,4) 0.492952 (1,14,3) -0.265607
(1,13,4): (1,12,4) 0.644817 (1,13,3) -0.492952 (1,13,5) 0.496964 (1,14,4) -0.484426
(1,13,5): (1,12,5) 1.21526 (1,13,4) -0.496964 (1,13,6) 0.188055 (1,14,5) -0.731632
(1,13,6): (1,12,6) 1.35898 (1,13,5) -0.188055 (1,13,7) -0.171138 (1,14,6) -0.819259
(1,13,7): (1,12,7) 1.21494 (1,13,6) 0.171138 (1,13,8) -0.469394 (1,14,7) -0.734215
(1,13,8): (1,12,8) 0.644818 (1,13,7) 0.469394 (1,13,9) -0.440627 (1,14,8) -0.491931
(1,13,9): (1,12,9) 0.263291 (1,13,8) 0.440627 (1,13,10) -0.243518 (1,14,9) -0.284610
(1,13,10): (1,12,10) 0.105870 (1,13,9) 0.243518 (1,14,10) -0.179462
(1,14,1): (1,13,1) 7.693414E-02 (1,14,2) 0.107897 (1,15,1) -5.480053E-02
(1,14,2): (1,13,2) 0.133829 (1,14,1) -0.107897 (1,14,3) 0.208574 (1,15,2) -8.580329E-02
(1,14,3): (1,13,3) 0.265607 (1,14,2) -0.208574 (1,14,4) 0.274115 (1,15,3) -0.151352
(1,14,4): (1,13,4) 0.484426 (1,14,3) -0.274115 (1,14,5) 0.250312 (1,15,4) -0.247655
(1,14,5): (1,13,5) 0.731632 (1,14,4) -0.250312 (1,14,6) 0.100951 (1,15,5) -0.344085
(1,14,6): (1,13,6) 0.819259 (1,14,5) -0.100951 (1,14,7) -8.661502E-02 (1,15,6) -0.381729
(1,14,7): (1,13,7) 0.734215 (1,14,6) 8.661502E-02 (1,14,8) -0.227723 (1,15,7) -0.346243
(1,14,8): (1,13,8) 0.491931 (1,14,7) 0.227723 (1,14,9) -0.233409 (1,15,8) -0.253650
(1,14,9): (1,13,9) 0.284610 (1,14,8) 0.233409 (1,14,10) -0.138412 (1,15,9) -0.165450
(1,14,10): (1,13,10) 0.179462 (1,14,9) 0.138412 (1,15,10) -0.116548
(1,15,1): (1,14,1) 5.480053E-02 (1,15,2) 7.688751E-02
(1,15,2): (1,14,2) 8.580329E-02 (1,15,1) -7.688751E-02 (1,15,3) 0.142988
(1,15,3): (1,14,3) 0.151352 (1,15,2) -0.142988 (1,15,4) 0.177787
(1,15,4): (1,14,4) 0.247655 (1,15,3) -0.177787 (1,15,5) 0.153970
(1,15,5): (1,14,5) 0.344085 (1,15,4) -0.153970 (1,15,6) 6.340865E-02
(1,15,6): (1,14,6) 0.381729 (1,15,5) -6.340865E-02 (1,15,7) -5.122997E-02
(1,15,7): (1,14,7) 0.346243 (1,15,6) 5.122997E-02 (1,15,8) -0.135236
(1,15,8): (1,14,8) 0.253650 (1,15,7) 0.135236 (1,15,9) -0.145226
(1,15,9): (1,14,9) 0.165450 (1,15,8) 0.145226 (1,15,10) -8.952408E-02
(1,15,10): (1,14,10) 0.116548 (1,15,9) 8.952408E-02

 WEL PACKAGE (WEL-1) FLOW RATES   PERIOD      2   STEP       96
 ----------------------------------------------------------------------------------------
   NUMBER   CELLID                    RATE       NAME                                    
 ----------------------------------------------------------------------------------------
     1      (1,8,6)              -204.32767      WEL                                     
 ----------------------------------------------------------------------------------------




 DRN PACKAGE (DRN-0) FLOW RATES   PERIOD      2   STEP       96
 ----------------------------------------------------------------------------------------
   NUMBER   CELLID                    RATE       NAME                                    
 ----------------------------------------------------------------------------------------
     1      (1,1,1)               0.0000000      SURF                                    
     2      (1,1,2)               0.0000000      SURF                                    
     3      (1,1,3)               0.0000000      SURF                                    
     4      (1,1,4)               0.0000000      SURF                                    
     5      (1,1,5)               0.0000000      SURF                                    
     6      (1,1,6)               0.0000000      SURF                                    
     7      (1,1,7)               0.0000000      SURF                                    
     8      (1,1,8)               0.0000000      SURF                                    
     9      (1,1,9)               0.0000000      SURF                                    
     10     (1,1,10)              0.0000000      SURF                                    
     11     (1,2,1)               0.0000000      SURF                                    
     12     (1,2,2)               0.0000000      SURF                                    
     13     (1,2,3)               0.0000000      SURF                                    
     14     (1,2,4)               0.0000000      SURF                                    
     15     (1,2,5)               0.0000000      SURF                                    
     16     (1,2,6)               0.0000000      SURF                                    
     17     (1,2,7)               0.0000000      SURF                                    
     18     (1,2,8)               0.0000000      SURF                                    
     19     (1,2,9)               0.0000000      SURF                                    
     20     (1,2,10)              0.0000000      SURF                                    
     21     (1,3,1)               0.0000000      SURF                                    
     22     (1,3,2)               0.0000000      SURF                                    
     23     (1,3,3)               0.0000000      SURF                                    
     24     (1,3,4)               0.0000000      SURF                                    
     25     (1,3,5)               0.0000000      SURF                                    
     26     (1,3,6)               0.0000000      SURF                                    
     27     (1,3,7)               0.0000000      SURF                                    
     28     (1,3,8)               0.0000000      SURF                                    
     29     (1,3,9)               0.0000000      SURF                                    
     30     (1,3,10)              0.0000000      SURF                                    
     31     (1,4,1)               0.0000000      SURF                                    
     32     (1,4,2)               0.0000000      SURF                                    
     33     (1,4,3)               0.0000000      SURF                                    
     34     (1,4,4)               0.0000000      SURF                                    
     35     (1,4,5)               0.0000000      SURF                                    
     36     (1,4,6)               0.0000000      SURF                                    
     37     (1,4,7)               0.0000000      SURF                                    
     38     (1,4,8)               0.0000000      SURF                                    
     39     (1,4,9)               0.0000000      SURF                                    
     40     (1,4,10)              0.0000000      SURF                                    
     41     (1,5,1)               0.0000000      SURF                                    
     42     (1,5,2)               0.0000000      SURF                                    
     43     (1,5,3)               0.0000000      SURF                                    
     44     (1,5,4)               0.0000000      SURF                                    
     45     (1,5,5)               0.0000000      SURF                                    
     46     (1,5,6)               0.0000000      SURF                                    
     47     (1,5,7)               0.0000000      SURF                                    
     48     (1,5,8)               0.0000000      SURF                                    
     49     (1,5,9)               0.0000000      SURF                                    
     50     (1,5,10)              0.0000000      SURF                                    
     51     (1,6,1)               0.0000000      SURF                                    
     52     (1,6,2)               0.0000000      SURF                                    
     53     (1,6,3)               0.0000000      SURF                                    
     54     (1,6,4)               0.0000000      SURF                                    
     55     (1,6,5)              -1.27819152E-02 SURF                                    
     56     (1,6,6)               0.0000000      SURF                                    
     57     (1,6,7)              -3.15194484E-07 SURF                                    
     58     (1,6,8)               0.0000000      SURF                                    
     59     (1,6,9)               0.0000000      SURF                                    
     60     (1,6,10)              0.0000000      SURF                                    
     61     (1,7,1)               0.0000000      SURF                                    
     62     (1,7,2)               0.0000000      SURF                                    
     63     (1,7,3)               0.0000000      SURF                                    
     64     (1,7,4)               0.0000000      SURF                                    
     65     (1,7,5)               0.0000000      SURF                                    
     66     (1,7,6)               0.0000000      SURF                                    
     67     (1,7,7)               0.0000000      SURF                                    
     68     (1,7,8)               0.0000000      SURF                                    
     69     (1,7,9)               0.0000000      SURF                                    
     70     (1,7,10)              0.0000000      SURF                                    
     71     (1,8,1)               0.0000000      SURF                                    
     72     (1,8,2)               0.0000000      SURF                                    
     73     (1,8,3)               0.0000000      SURF                                    
     74     (1,8,4)               0.0000000      SURF                                    
     75     (1,8,5)               0.0000000      SURF                                    
     76     (1,8,6)               0.0000000      SURF                                    
     77     (1,8,7)               0.0000000      SURF                                    
     78     (1,8,8)               0.0000000      SURF                                    
     79     (1,8,9)               0.0000000      SURF                                    
     80     (1,8,10)              0.0000000      SURF                                    
     81     (1,9,1)               0.0000000      SURF                                    
     82     (1,9,2)               0.0000000      SURF                                    
     83     (1,9,3)               0.0000000      SURF                                    
     84     (1,9,4)               0.0000000      SURF                                    
     85     (1,9,5)               0.0000000      SURF                                    
     86     (1,9,6)               0.0000000      SURF                                    
     87     (1,9,7)               0.0000000      SURF                                    
     88     (1,9,8)               0.0000000      SURF                                    
     89     (1,9,9)               0.0000000      SURF                                    
     90     (1,9,10)              0.0000000      SURF                                    
     91     (1,10,1)              0.0000000      SURF                                    
     92     (1,10,2)              0.0000000      SURF                                    
     93     (1,10,3)              0.0000000      SURF                                    
     94     (1,10,4)              0.0000000      SURF                                    
     95     (1,10,5)              0.0000000      SURF                                    
     96     (1,10,6)              0.0000000      SURF                                    
     97     (1,10,7)              0.0000000      SURF                                    
     98     (1,10,8)              0.0000000      SURF                                    
     99     (1,10,9)              0.0000000      SURF                                    
    100     (1,10,10)             0.0000000      SURF                                    
    101     (1,11,1)              0.0000000      SURF                                    
    102     (1,11,2)              0.0000000      SURF                                    
    103     (1,11,3)              0.0000000      SURF                                    
    104     (1,11,4)              0.0000000      SURF                                    
    105     (1,11,5)              0.0000000      SURF                                    
    106     (1,11,6)              0.0000000      SURF                                    
    107     (1,11,7)              0.0000000      SURF                                    
    108     (1,11,8)              0.0000000      SURF                                    
    109     (1,11,9)              0.0000000      SURF                                    
    110     (1,11,10)             0.0000000      SURF                                    
    111     (1,12,1)              0.0000000      SURF                                    
    112     (1,12,2)              0.0000000      SURF                                    
    113     (1,12,3)              0.0000000      SURF                                    
    114     (1,12,4)              0.0000000      SURF                                    
    115     (1,12,5)              0.0000000      SURF                                    
    116     (1,12,6)              0.0000000      SURF                                    
    117     (1,12,7)              0.0000000      SURF                                    
    118     (1,12,8)              0.0000000      SURF                                    
    119     (1,12,9)              0.0000000      SURF                                    
    120     (1,12,10)             0.0000000      SURF                                    
    121     (1,13,1)              0.0000000      SURF                                    
    122     (1,13,2)              0.0000000      SURF                                    
    123     (1,13,3)              0.0000000      SURF                                    
    124     (1,13,4)              0.0000000      SURF                                    
    125     (1,13,5)              0.0000000      SURF                                    
    126     (1,13,6)              0.0000000      SURF                                    
    127     (1,13,7)              0.0000000      SURF                                    
    128     (1,13,8)              0.0000000      SURF                                    
    129     (1,13,9)              0.0000000      SURF                                    
    130     (1,13,10)             0.0000000      SURF                                    
    131     (1,14,1)              0.0000000      SURF                                    
    132     (1,14,2)              0.0000000      SURF                                    
    133     (1,14,3)              0.0000000      SURF                                    
    134     (1,14,4)              0.0000000      SURF                                    
    135     (1,14,5)              0.0000000      SURF                                    
    136     (1,14,6)              0.0000000      SURF                                    
    137     (1,14,7)              0.0000000      SURF                                    
    138     (1,14,8)              0.0000000      SURF                                    
    139     (1,14,9)              0.0000000      SURF                                    
    140     (1,14,10)             0.0000000      SURF                                    
    141     (1,15,1)              0.0000000      SURF                                    
    142     (1,15,2)              0.0000000      SURF                                    
    143     (1,15,3)              0.0000000      SURF                                    
    144     (1,15,4)              0.0000000      SURF                                    
    145     (1,15,5)              0.0000000      SURF                                    
    146     (1,15,6)              0.0000000      SURF                                    
    147     (1,15,7)              0.0000000      SURF                                    
    148     (1,15,8)              0.0000000      SURF                                    
    149     (1,15,9)              0.0000000      SURF                                    
    150     (1,15,10)             0.0000000      SURF                                    
 ----------------------------------------------------------------------------------------




 API PACKAGE (MAR) FLOW RATES   PERIOD      2   STEP       96
 -----------------------------------------------
   NUMBER   CELLID                    RATE      
 -----------------------------------------------
     1      (1,6,5)               35.912554     
     2      (1,6,6)               35.912554     
     3      (1,6,7)               35.912554     
     4      (1,10,5)              32.196669     
     5      (1,10,6)              32.196669     
     6      (1,10,7)              32.196669     
 -----------------------------------------------



1
  HEAD IN LAYER   1 AT END OF TIME STEP  96 IN STRESS PERIOD    2
  ---------------------------------------------------------------------------

            1           2           3           4           5           6           7           8           9          10
 ........................................................................................................................
   1   2.6583E-02  3.4694E-02  4.9724E-02  6.8348E-02  8.4460E-02  9.1133E-02  8.5874E-02  7.1877E-02  5.6829E-02  4.7543E-02
   2   3.2458E-02  4.3777E-02  6.5608E-02  9.4262E-02  0.1205      0.1311      0.1221      9.8433E-02  7.4203E-02  5.9844E-02
   3   4.0813E-02  5.8111E-02  9.3838E-02  0.1456      0.1981      0.2181      0.2000      0.1506      0.1045      7.8994E-02
   4   4.4057E-02  6.7920E-02  0.1230      0.2169      0.3311      0.3672      0.3330      0.2220      0.1341      9.1315E-02
   5   3.0938E-02  5.5100E-02  0.1239      0.2817      0.5560      0.6019      0.5572      0.2850      0.1313      7.2198E-02
   6  -7.2845E-03 -3.3153E-03  3.4664E-02  0.2279       1.000      0.9288       1.000      0.2272      3.2335E-02 -7.6566E-03
   7  -6.1289E-02 -0.1087     -0.2265     -0.4715     -0.9763      -2.170     -0.9780     -0.4770     -0.2417     -0.1461    
   8  -8.9496E-02 -0.1690     -0.3952     -0.9932      -2.742      -9.253      -2.745      -1.001     -0.4172     -0.2244    
   9  -6.4085E-02 -0.1136     -0.2379     -0.4998      -1.039      -2.245      -1.041     -0.5057     -0.2538     -0.1524    
  10  -1.2060E-02 -1.1504E-02  1.4911E-02  0.1734      0.8501      0.7575      0.8497      0.1721      1.1459E-02 -1.8210E-02
  11   2.5668E-02  4.7151E-02  0.1081      0.2477      0.4902      0.5258      0.4912      0.2503      0.1142      6.1817E-02
  12   3.9208E-02  6.1474E-02  0.1125      0.1987      0.3022      0.3342      0.3038      0.2031      0.1224      8.2778E-02
  13   3.6698E-02  5.3092E-02  8.6844E-02  0.1355      0.1843      0.2027      0.1859      0.1399      9.6398E-02  7.2278E-02
  14   2.9033E-02  3.9780E-02  6.0512E-02  8.7685E-02  0.1124      0.1224      0.1139      9.1338E-02  6.8208E-02  5.4461E-02
  15   2.3568E-02  3.1233E-02  4.5467E-02  6.3134E-02  7.8412E-02  8.4699E-02  7.9619E-02  6.6203E-02  5.1775E-02  4.2869E-02

 HEAD WILL BE SAVED ON UNIT 1100 AT END OF TIME STEP   96, STRESS PERIOD    2


  VOLUME BUDGET FOR ENTIRE MODEL AT END OF TIME STEP   96, STRESS PERIOD   2
  ---------------------------------------------------------------------------------------------------

     CUMULATIVE VOLUME      L**3       RATES FOR THIS TIME STEP      L**3/T          PACKAGE NAME    
     ------------------                 ------------------------                     ----------------

           IN:                                      IN:
           ---                                      ---
              STO-SS =          26.0006                STO-SS =       7.2038E-03     STORAGE                          
              STO-SY =       63663.7652                STO-SY =          14.8938     STORAGE                          
                 WEL =           0.0000                   WEL =           0.0000     WEL-1                            
                 DRN =           0.0000                   DRN =           0.0000     DRN-0                            
                 API =      196442.6929                   API =         204.3277     MAR                              
                 CHD =       2.0279E-08                   CHD =           0.0000     CHD_0                            

            TOTAL IN =      260132.4587              TOTAL IN =         219.2287

          OUT:                                     OUT:
          ----                                     ----
              STO-SS =          22.5596                STO-SS =       7.5307E-03     STORAGE                          
              STO-SY =       44097.9105                STO-SY =          14.8807     STORAGE                          
                 WEL =      216011.4991                   WEL =         204.3277     WEL-1                            
                 DRN =           0.4895                   DRN =       1.2782E-02     DRN-0                            
                 API =           0.0000                   API =           0.0000     MAR                              
                 CHD =       2.0705E-08                   CHD =           0.0000     CHD_0                            

           TOTAL OUT =      260132.4587             TOTAL OUT =         219.2287

            IN - OUT =      -8.3746E-07              IN - OUT =       2.0004E-09

 PERCENT DISCREPANCY =          -0.00     PERCENT DISCREPANCY =           0.00




         TIME SUMMARY AT END OF TIME STEP   96 IN STRESS PERIOD    2
                    SECONDS     MINUTES      HOURS       DAYS        YEARS
                    -----------------------------------------------------------
   TIME STEP LENGTH 8.64000E+05  14400.      240.00      10.000     2.73785E-02
 STRESS PERIOD TIME 8.29440E+07 1.38240E+06  23040.      960.00      2.6283    
         TOTAL TIME 8.30304E+07 1.38384E+06  23064.      961.00      2.6311    


end timestep


start timestep kper="2" kstp="97" mode="normal"

 UBDSV1 SAVING           STO-SS ON UNIT   1099 AT TIME STEP     97, STRESS PERIOD      2
 UBDSV1 SAVING           STO-SY ON UNIT   1099 AT TIME STEP     97, STRESS PERIOD      2
 UBDSV1 SAVING     FLOW-JA-FACE ON UNIT   1099 AT TIME STEP     97, STRESS PERIOD      2
 UBDSV06 SAVING       DATA-SPDIS IN MODEL GWF              PACKAGE NPF             CONNECTED TO MODEL GWF              PACKAGE NPF              ON UNIT   1099 AT TIME STEP     97, STRESS PERIOD      2
 UBDSV06 SAVING              WEL IN MODEL GWF              PACKAGE GWF             CONNECTED TO MODEL GWF              PACKAGE WEL-1            ON UNIT   1099 AT TIME STEP     97, STRESS PERIOD      2
 UBDSV06 SAVING              DRN IN MODEL GWF              PACKAGE GWF             CONNECTED TO MODEL GWF              PACKAGE DRN-0            ON UNIT   1099 AT TIME STEP     97, STRESS PERIOD      2
 UBDSV06 SAVING              API IN MODEL GWF              PACKAGE GWF             CONNECTED TO MODEL GWF              PACKAGE MAR              ON UNIT   1099 AT TIME STEP     97, STRESS PERIOD      2
 UBDSV06 SAVING              CHD IN MODEL GWF              PACKAGE GWF             CONNECTED TO MODEL GWF              PACKAGE CHD_0            ON UNIT   1099 AT TIME STEP     97, STRESS PERIOD      2

    CALCULATED INTERCELL FLOW FOR PERIOD 2 STEP 97
(1,1,1): (1,1,2) 8.241255E-02 (1,2,1) 5.882819E-02
(1,1,2): (1,1,1) -8.241255E-02 (1,1,3) 0.152814 (1,2,2) 9.110835E-02
(1,1,3): (1,1,2) -0.152814 (1,1,4) 0.189534 (1,2,3) 0.159769
(1,1,4): (1,1,3) -0.189534 (1,1,5) 0.164127 (1,2,4) 0.261525
(1,1,5): (1,1,4) -0.164127 (1,1,6) 6.809934E-02 (1,2,5) 0.364384
(1,1,6): (1,1,5) -6.809934E-02 (1,1,7) -5.335193E-02 (1,2,6) 0.404816
(1,1,7): (1,1,6) 5.335193E-02 (1,1,8) -0.142217 (1,2,7) 0.366809
(1,1,8): (1,1,7) 0.142217 (1,1,9) -0.152789 (1,2,8) 0.268101
(1,1,9): (1,1,8) 0.152789 (1,1,10) -9.418644E-02 (1,2,9) 0.174879
(1,1,10): (1,1,9) 9.418644E-02 (1,2,10) 0.123552
(1,2,1): (1,1,1) -5.882819E-02 (1,2,2) 0.114700 (1,3,1) 8.304262E-02
(1,2,2): (1,1,2) -9.110835E-02 (1,2,1) -0.114700 (1,2,3) 0.221517 (1,3,2) 0.143240
(1,2,3): (1,1,3) -0.159769 (1,2,2) -0.221517 (1,2,4) 0.291320 (1,3,3) 0.283948
(1,2,4): (1,1,4) -0.261525 (1,2,3) -0.291320 (1,2,5) 0.266889 (1,3,4) 0.520354
(1,2,5): (1,1,5) -0.364384 (1,2,4) -0.266889 (1,2,6) 0.108415 (1,3,5) 0.790688
(1,2,6): (1,1,6) -0.404816 (1,2,5) -0.108415 (1,2,7) -9.124373E-02 (1,3,6) 0.887900
(1,2,7): (1,1,7) -0.366809 (1,2,6) 9.124373E-02 (1,2,8) -0.240804 (1,3,7) 0.793633
(1,2,8): (1,1,8) -0.268101 (1,2,7) 0.240804 (1,2,9) -0.245992 (1,3,8) 0.528648
(1,2,9): (1,1,9) -0.174879 (1,2,8) 0.245992 (1,2,10) -0.145498 (1,3,9) 0.304406
(1,2,10): (1,1,10) -0.123552 (1,2,9) 0.145498 (1,3,10) 0.191695
(1,3,1): (1,2,1) -8.304262E-02 (1,3,2) 0.174916 (1,4,1) 3.021017E-02
(1,3,2): (1,2,2) -0.143240 (1,3,1) -0.174916 (1,3,3) 0.362333 (1,4,2) 9.612483E-02
(1,3,3): (1,2,3) -0.283948 (1,3,2) -0.362333 (1,3,4) 0.527743 (1,4,3) 0.292054
(1,3,4): (1,2,4) -0.520354 (1,3,3) -0.527743 (1,3,5) 0.536569 (1,4,4) 0.725464
(1,3,5): (1,2,5) -0.790688 (1,3,4) -0.536569 (1,3,6) 0.205002 (1,4,5) 1.37119
(1,3,6): (1,2,6) -0.887900 (1,3,5) -0.205002 (1,3,7) -0.184886 (1,4,6) 1.54314
(1,3,7): (1,2,7) -0.793633 (1,3,6) 0.184886 (1,3,8) -0.505061 (1,4,7) 1.37106
(1,3,8): (1,2,8) -0.528648 (1,3,7) 0.505061 (1,3,9) -0.470107 (1,4,8) 0.725851
(1,3,9): (1,2,9) -0.304406 (1,3,8) 0.470107 (1,3,10) -0.258159 (1,4,9) 0.296915
(1,3,10): (1,2,10) -0.191695 (1,3,9) 0.258159 (1,4,10) 0.120682
(1,4,1): (1,3,1) -3.021017E-02 (1,4,2) 0.240925 (1,5,1) -0.136003
(1,4,2): (1,3,2) -9.612483E-02 (1,4,1) -0.240925 (1,4,3) 0.558771 (1,5,2) -0.133760
(1,4,3): (1,3,3) -0.292054 (1,4,2) -0.558771 (1,4,4) 0.962129 (1,5,3) 4.287623E-03
(1,4,4): (1,3,4) -0.725464 (1,4,3) -0.962129 (1,4,5) 1.18116 (1,5,4) 0.661008
(1,4,5): (1,3,5) -1.37119 (1,4,4) -1.18116 (1,4,6) 0.375131 (1,5,5) 2.36952
(1,4,6): (1,3,6) -1.54314 (1,4,5) -0.375131 (1,4,7) -0.355117 (1,5,6) 2.48374
(1,4,7): (1,3,7) -1.37106 (1,4,6) 0.355117 (1,4,8) -1.14894 (1,5,7) 2.36247
(1,4,8): (1,3,8) -0.725851 (1,4,7) 1.14894 (1,4,9) -0.899753 (1,5,8) 0.642160
(1,4,9): (1,3,9) -0.296915 (1,4,8) 0.899753 (1,4,10) -0.434627 (1,5,9) -3.495427E-02
(1,4,10): (1,3,10) -0.120682 (1,4,9) 0.434627 (1,5,10) -0.199379
(1,5,1): (1,4,1) 0.136003 (1,5,2) 0.243170 (1,6,1) -0.388756
(1,5,2): (1,4,2) 0.133760 (1,5,1) -0.243170 (1,5,3) 0.697581 (1,6,2) -0.593340
(1,5,3): (1,4,3) -4.287623E-03 (1,5,2) -0.697581 (1,5,4) 1.62484 (1,6,3) -0.910295
(1,5,4): (1,4,4) -0.661008 (1,5,3) -1.62484 (1,5,5) 2.89769 (1,6,4) -0.560537
(1,5,5): (1,4,5) -2.36952 (1,5,4) -2.89769 (1,5,6) 0.487507 (1,6,5) 4.87852
(1,5,6): (1,4,6) -2.48374 (1,5,5) -0.487507 (1,5,7) -0.474396 (1,6,6) 3.56855
(1,5,7): (1,4,7) -2.36247 (1,5,6) 0.474396 (1,5,8) -2.87712 (1,6,7) 4.86491
(1,5,8): (1,4,8) -0.642160 (1,5,7) 2.87712 (1,5,9) -1.58288 (1,6,8) -0.602218
(1,5,9): (1,4,9) 3.495427E-02 (1,5,8) 1.58288 (1,5,10) -0.599695 (1,6,9) -1.01067
(1,5,10): (1,4,10) 0.199379 (1,5,9) 0.599695 (1,6,10) -0.812500
(1,6,1): (1,5,1) 0.388756 (1,6,2) 3.929164E-02 (1,7,1) -0.544336
(1,6,2): (1,5,2) 0.593340 (1,6,1) -3.929164E-02 (1,6,3) 0.381276 (1,7,2) -1.05931
(1,6,3): (1,5,3) 0.910295 (1,6,2) -0.381276 (1,6,4) 1.97826 (1,7,3) -2.62744
(1,6,4): (1,5,4) 0.560537 (1,6,3) -1.97826 (1,6,5) 8.49763 (1,7,4) -7.16016
(1,6,5): (1,5,5) -4.87852 (1,6,4) -8.49763 (1,6,6) -0.781000 (1,7,5) -21.7477
(1,6,6): (1,5,6) -3.56855 (1,6,5) 0.781000 (1,6,7) 0.780998 (1,7,6) -33.8707
(1,6,7): (1,5,7) -4.86491 (1,6,6) -0.780998 (1,6,8) -8.50663 (1,7,7) -21.7666
(1,6,8): (1,5,8) 0.602218 (1,6,7) 8.50663 (1,6,9) -1.99526 (1,7,8) -7.20981
(1,6,9): (1,5,9) 1.01067 (1,6,8) 1.99526 (1,6,10) -0.402304 (1,7,9) -2.75735
(1,6,10): (1,5,10) 0.812500 (1,6,9) 0.402304 (1,7,10) -1.39091
(1,7,1): (1,6,1) 0.544336 (1,7,2) -0.472692 (1,8,1) -0.282426
(1,7,2): (1,6,2) 1.05931 (1,7,1) 0.472692 (1,7,3) -1.16585 (1,8,2) -0.598819
(1,7,3): (1,6,3) 2.62744 (1,7,2) 1.16585 (1,7,4) -2.39236 (1,8,3) -1.65188
(1,7,4): (1,6,4) 7.16016 (1,7,3) 2.39236 (1,7,5) -4.80624 (1,8,4) -4.97624
(1,7,5): (1,6,5) 21.7477 (1,7,4) 4.80624 (1,7,6) -10.7651 (1,8,5) -15.9420
(1,7,6): (1,6,6) 33.8707 (1,7,5) 10.7651 (1,7,7) 10.7476 (1,8,6) -55.4619
(1,7,7): (1,6,7) 21.7666 (1,7,6) -10.7476 (1,7,8) 4.76511 (1,8,7) -15.9486
(1,7,8): (1,6,8) 7.20981 (1,7,7) -4.76511 (1,7,9) 2.29311 (1,8,8) -4.99913
(1,7,9): (1,6,9) 2.75735 (1,7,8) -2.29311 (1,7,10) 0.941421 (1,8,9) -1.71620
(1,7,10): (1,6,10) 1.39091 (1,7,9) -0.941421 (1,8,10) -0.774525
(1,8,1): (1,7,1) 0.282426 (1,8,2) -0.789701 (1,9,1) 0.253924
(1,8,2): (1,7,2) 0.598819 (1,8,1) 0.789701 (1,8,3) -2.22513 (1,9,2) 0.549156
(1,8,3): (1,7,3) 1.65188 (1,8,2) 2.22513 (1,8,4) -5.74349 (1,9,3) 1.53541
(1,8,4): (1,7,4) 4.97624 (1,8,3) 5.74349 (1,8,5) -15.7498 (1,9,4) 4.68408
(1,8,5): (1,7,5) 15.9420 (1,8,4) 15.7498 (1,8,6) -47.2347 (1,9,5) 15.2556
(1,8,6): (1,7,6) 55.4619 (1,8,5) 47.2347 (1,8,7) 47.1965 (1,9,6) 54.3166
(1,8,7): (1,7,7) 15.9486 (1,8,6) -47.1965 (1,8,8) 15.6840 (1,9,7) 15.2603
(1,8,8): (1,7,8) 4.99913 (1,8,7) -15.6840 (1,8,9) 5.59669 (1,9,8) 4.70349
(1,8,9): (1,7,9) 1.71620 (1,8,8) -5.59669 (1,8,10) 1.88474 (1,9,9) 1.59298
(1,8,10): (1,7,10) 0.774525 (1,8,9) -1.88474 (1,9,10) 0.710401
(1,9,1): (1,8,1) -0.253924 (1,9,2) -0.493744 (1,10,1) 0.523940
(1,9,2): (1,8,2) -0.549156 (1,9,1) 0.493744 (1,9,3) -1.23184 (1,10,2) 1.02414
(1,9,3): (1,8,3) -1.53541 (1,9,2) 1.23184 (1,9,4) -2.55958 (1,10,3) 2.53574
(1,9,4): (1,8,4) -4.68408 (1,9,3) 2.55958 (1,9,5) -5.12246 (1,10,4) 6.84942
(1,9,5): (1,8,5) -15.2556 (1,9,4) 5.12246 (1,9,6) -10.8071 (1,10,5) 20.4849
(1,9,6): (1,8,6) -54.3166 (1,9,5) 10.8071 (1,9,7) 10.7878 (1,10,6) 32.2847
(1,9,7): (1,8,7) -15.2603 (1,9,6) -10.7878 (1,9,8) 5.07941 (1,10,7) 20.5003
(1,9,8): (1,8,8) -4.70349 (1,9,7) -5.07941 (1,9,9) 2.45674 (1,10,8) 6.89616
(1,9,9): (1,8,9) -1.59298 (1,9,8) -2.45674 (1,9,10) 0.999483 (1,10,9) 2.66059
(1,9,10): (1,8,10) -0.710401 (1,9,9) -0.999483 (1,10,10) 1.34553
(1,10,1): (1,9,1) -0.523940 (1,10,2) 3.808983E-03 (1,11,1) 0.383664
(1,10,2): (1,9,2) -1.02414 (1,10,1) -3.808983E-03 (1,10,3) 0.261058 (1,11,2) 0.595567
(1,10,3): (1,9,3) -2.53574 (1,10,2) -0.261058 (1,10,4) 1.60629 (1,11,3) 0.950022
(1,10,4): (1,9,4) -6.84942 (1,10,3) -1.60629 (1,10,5) 7.33034 (1,11,4) 0.771847
(1,10,5): (1,9,5) -20.4849 (1,10,4) -7.33034 (1,10,6) -1.00674 (1,11,5) -3.88724
(1,10,6): (1,9,6) -32.2847 (1,10,5) 1.00674 (1,10,7) 1.00230 (1,11,6) -2.47466
(1,10,7): (1,9,7) -20.5003 (1,10,6) -1.00230 (1,10,8) -7.34084 (1,11,7) -3.87259
(1,10,8): (1,9,8) -6.89616 (1,10,7) 7.34084 (1,10,9) -1.62886 (1,11,8) 0.812433
(1,10,9): (1,9,9) -2.66059 (1,10,8) 1.62886 (1,10,10) -0.294929 (1,11,9) 1.04863
(1,10,10): (1,9,10) -1.34553 (1,10,9) 0.294929 (1,11,10) 0.813765
(1,11,1): (1,10,1) -0.383664 (1,11,2) 0.214916 (1,12,1) 0.140409
(1,11,2): (1,10,2) -0.595567 (1,11,1) -0.214916 (1,11,3) 0.614361 (1,12,2) 0.149523
(1,11,3): (1,10,3) -0.950022 (1,11,2) -0.614361 (1,11,4) 1.42692 (1,12,3) 5.134632E-02
(1,11,4): (1,10,4) -0.771847 (1,11,3) -1.42692 (1,11,5) 2.53928 (1,12,4) -0.492312
(1,11,5): (1,10,5) 3.88724 (1,11,4) -2.53928 (1,11,6) 0.373039 (1,12,5) -1.95856
(1,11,6): (1,10,6) 2.47466 (1,11,5) -0.373039 (1,11,7) -0.363239 (1,12,6) -2.00209
(1,11,7): (1,10,7) 3.87259 (1,11,6) 0.363239 (1,11,8) -2.52260 (1,12,7) -1.95137
(1,11,8): (1,10,8) -0.812433 (1,11,7) 2.52260 (1,11,9) -1.39129 (1,12,8) -0.473447
(1,11,9): (1,10,9) -1.04863 (1,11,8) 1.39129 (1,11,10) -0.528624 (1,12,9) 9.123465E-02
(1,11,10): (1,10,10) -0.813765 (1,11,9) 0.528624 (1,12,10) 0.218756
(1,12,1): (1,11,1) -0.140409 (1,12,2) 0.224037 (1,13,1) -2.263461E-02
(1,12,2): (1,11,2) -0.149523 (1,12,1) -0.224037 (1,12,3) 0.515735 (1,13,2) -8.114373E-02
(1,12,3): (1,11,3) -5.134632E-02 (1,12,2) -0.515735 (1,12,4) 0.878440 (1,13,3) -0.255003
(1,12,4): (1,11,4) 0.492312 (1,12,3) -0.878440 (1,12,5) 1.06536 (1,13,4) -0.638717
(1,12,5): (1,11,5) 1.95856 (1,12,4) -1.06536 (1,12,6) 0.330049 (1,13,5) -1.20734
(1,12,6): (1,11,6) 2.00209 (1,12,5) -0.330049 (1,12,7) -0.313180 (1,13,6) -1.35037
(1,12,7): (1,11,7) 1.95137 (1,12,6) 0.313180 (1,12,8) -1.03706 (1,13,7) -1.20687
(1,12,8): (1,11,8) 0.473447 (1,12,7) 1.03706 (1,12,9) -0.821742 (1,13,8) -0.638350
(1,12,9): (1,11,9) -9.123465E-02 (1,12,8) 0.821742 (1,12,10) -0.400716 (1,13,9) -0.258187
(1,12,10): (1,11,10) -0.218756 (1,12,9) 0.400716 (1,13,10) -0.101490
(1,13,1): (1,12,1) 2.263461E-02 (1,13,2) 0.165445 (1,14,1) -7.602985E-02
(1,13,2): (1,12,2) 8.114373E-02 (1,13,1) -0.165445 (1,13,3) 0.341433 (1,14,2) -0.132640
(1,13,3): (1,12,3) 0.255003 (1,13,2) -0.341433 (1,13,4) 0.493846 (1,14,3) -0.263863
(1,13,4): (1,12,4) 0.638717 (1,13,3) -0.493846 (1,13,5) 0.497484 (1,14,4) -0.481920
(1,13,5): (1,12,5) 1.20734 (1,13,4) -0.497484 (1,13,6) 0.188350 (1,14,5) -0.728372
(1,13,6): (1,12,6) 1.35037 (1,13,5) -0.188350 (1,13,7) -0.171036 (1,14,6) -0.815696
(1,13,7): (1,12,7) 1.20687 (1,13,6) 0.171036 (1,13,8) -0.469434 (1,14,7) -0.730906
(1,13,8): (1,12,8) 0.638350 (1,13,7) 0.469434 (1,13,9) -0.440913 (1,14,8) -0.489299
(1,13,9): (1,12,9) 0.258187 (1,13,8) 0.440913 (1,13,10) -0.243801 (1,14,9) -0.282609
(1,13,10): (1,12,10) 0.101490 (1,13,9) 0.243801 (1,14,10) -0.177810
(1,14,1): (1,13,1) 7.602985E-02 (1,14,2) 0.108817 (1,15,1) -5.468339E-02
(1,14,2): (1,13,2) 0.132640 (1,14,1) -0.108817 (1,14,3) 0.210110 (1,15,2) -8.560516E-02
(1,14,3): (1,13,3) 0.263863 (1,14,2) -0.210110 (1,14,4) 0.275764 (1,15,3) -0.150991
(1,14,4): (1,13,4) 0.481920 (1,14,3) -0.275764 (1,14,5) 0.251575 (1,15,4) -0.247066
(1,14,5): (1,13,5) 0.728372 (1,14,4) -0.251575 (1,14,6) 0.101544 (1,15,5) -0.343274
(1,14,6): (1,13,6) 0.815696 (1,14,5) -0.101544 (1,14,7) -8.676450E-02 (1,15,6) -0.380829
(1,14,7): (1,13,7) 0.730906 (1,14,6) 8.676450E-02 (1,14,8) -0.228430 (1,15,7) -0.345429
(1,14,8): (1,13,8) 0.489299 (1,14,7) 0.228430 (1,14,9) -0.234319 (1,15,8) -0.253048
(1,14,9): (1,13,9) 0.282609 (1,14,8) 0.234319 (1,14,10) -0.139043 (1,15,9) -0.165050
(1,14,10): (1,13,10) 0.177810 (1,14,9) 0.139043 (1,15,10) -0.116262
(1,15,1): (1,14,1) 5.468339E-02 (1,15,2) 7.788765E-02
(1,15,2): (1,14,2) 8.560516E-02 (1,15,1) -7.788765E-02 (1,15,3) 0.144686
(1,15,3): (1,14,3) 0.150991 (1,15,2) -0.144686 (1,15,4) 0.179662
(1,15,4): (1,14,4) 0.247066 (1,15,3) -0.179662 (1,15,5) 0.155453
(1,15,5): (1,14,5) 0.343274 (1,15,4) -0.155453 (1,15,6) 6.409049E-02
(1,15,6): (1,14,6) 0.380829 (1,15,5) -6.409049E-02 (1,15,7) -5.146522E-02
(1,15,7): (1,14,7) 0.345429 (1,15,6) 5.146522E-02 (1,15,8) -0.136154
(1,15,8): (1,14,8) 0.253048 (1,15,7) 0.136154 (1,15,9) -0.146337
(1,15,9): (1,14,9) 0.165050 (1,15,8) 0.146337 (1,15,10) -9.026700E-02
(1,15,10): (1,14,10) 0.116262 (1,15,9) 9.026700E-02

 WEL PACKAGE (WEL-1) FLOW RATES   PERIOD      2   STEP       97
 ----------------------------------------------------------------------------------------
   NUMBER   CELLID                    RATE       NAME                                    
 ----------------------------------------------------------------------------------------
     1      (1,8,6)              -204.25492      WEL                                     
 ----------------------------------------------------------------------------------------




 DRN PACKAGE (DRN-0) FLOW RATES   PERIOD      2   STEP       97
 ----------------------------------------------------------------------------------------
   NUMBER   CELLID                    RATE       NAME                                    
 ----------------------------------------------------------------------------------------
     1      (1,1,1)               0.0000000      SURF                                    
     2      (1,1,2)               0.0000000      SURF                                    
     3      (1,1,3)               0.0000000      SURF                                    
     4      (1,1,4)               0.0000000      SURF                                    
     5      (1,1,5)               0.0000000      SURF                                    
     6      (1,1,6)               0.0000000      SURF                                    
     7      (1,1,7)               0.0000000      SURF                                    
     8      (1,1,8)               0.0000000      SURF                                    
     9      (1,1,9)               0.0000000      SURF                                    
     10     (1,1,10)              0.0000000      SURF                                    
     11     (1,2,1)               0.0000000      SURF                                    
     12     (1,2,2)               0.0000000      SURF                                    
     13     (1,2,3)               0.0000000      SURF                                    
     14     (1,2,4)               0.0000000      SURF                                    
     15     (1,2,5)               0.0000000      SURF                                    
     16     (1,2,6)               0.0000000      SURF                                    
     17     (1,2,7)               0.0000000      SURF                                    
     18     (1,2,8)               0.0000000      SURF                                    
     19     (1,2,9)               0.0000000      SURF                                    
     20     (1,2,10)              0.0000000      SURF                                    
     21     (1,3,1)               0.0000000      SURF                                    
     22     (1,3,2)               0.0000000      SURF                                    
     23     (1,3,3)               0.0000000      SURF                                    
     24     (1,3,4)               0.0000000      SURF                                    
     25     (1,3,5)               0.0000000      SURF                                    
     26     (1,3,6)               0.0000000      SURF                                    
     27     (1,3,7)               0.0000000      SURF                                    
     28     (1,3,8)               0.0000000      SURF                                    
     29     (1,3,9)               0.0000000      SURF                                    
     30     (1,3,10)              0.0000000      SURF                                    
     31     (1,4,1)               0.0000000      SURF                                    
     32     (1,4,2)               0.0000000      SURF                                    
     33     (1,4,3)               0.0000000      SURF                                    
     34     (1,4,4)               0.0000000      SURF                                    
     35     (1,4,5)               0.0000000      SURF                                    
     36     (1,4,6)               0.0000000      SURF                                    
     37     (1,4,7)               0.0000000      SURF                                    
     38     (1,4,8)               0.0000000      SURF                                    
     39     (1,4,9)               0.0000000      SURF                                    
     40     (1,4,10)              0.0000000      SURF                                    
     41     (1,5,1)               0.0000000      SURF                                    
     42     (1,5,2)               0.0000000      SURF                                    
     43     (1,5,3)               0.0000000      SURF                                    
     44     (1,5,4)               0.0000000      SURF                                    
     45     (1,5,5)               0.0000000      SURF                                    
     46     (1,5,6)               0.0000000      SURF                                    
     47     (1,5,7)               0.0000000      SURF                                    
     48     (1,5,8)               0.0000000      SURF                                    
     49     (1,5,9)               0.0000000      SURF                                    
     50     (1,5,10)              0.0000000      SURF                                    
     51     (1,6,1)               0.0000000      SURF                                    
     52     (1,6,2)               0.0000000      SURF                                    
     53     (1,6,3)               0.0000000      SURF                                    
     54     (1,6,4)               0.0000000      SURF                                    
     55     (1,6,5)              -1.42350514E-02 SURF                                    
     56     (1,6,6)               0.0000000      SURF                                    
     57     (1,6,7)              -3.14656063E-07 SURF                                    
     58     (1,6,8)               0.0000000      SURF                                    
     59     (1,6,9)               0.0000000      SURF                                    
     60     (1,6,10)              0.0000000      SURF                                    
     61     (1,7,1)               0.0000000      SURF                                    
     62     (1,7,2)               0.0000000      SURF                                    
     63     (1,7,3)               0.0000000      SURF                                    
     64     (1,7,4)               0.0000000      SURF                                    
     65     (1,7,5)               0.0000000      SURF                                    
     66     (1,7,6)               0.0000000      SURF                                    
     67     (1,7,7)               0.0000000      SURF                                    
     68     (1,7,8)               0.0000000      SURF                                    
     69     (1,7,9)               0.0000000      SURF                                    
     70     (1,7,10)              0.0000000      SURF                                    
     71     (1,8,1)               0.0000000      SURF                                    
     72     (1,8,2)               0.0000000      SURF                                    
     73     (1,8,3)               0.0000000      SURF                                    
     74     (1,8,4)               0.0000000      SURF                                    
     75     (1,8,5)               0.0000000      SURF                                    
     76     (1,8,6)               0.0000000      SURF                                    
     77     (1,8,7)               0.0000000      SURF                                    
     78     (1,8,8)               0.0000000      SURF                                    
     79     (1,8,9)               0.0000000      SURF                                    
     80     (1,8,10)              0.0000000      SURF                                    
     81     (1,9,1)               0.0000000      SURF                                    
     82     (1,9,2)               0.0000000      SURF                                    
     83     (1,9,3)               0.0000000      SURF                                    
     84     (1,9,4)               0.0000000      SURF                                    
     85     (1,9,5)               0.0000000      SURF                                    
     86     (1,9,6)               0.0000000      SURF                                    
     87     (1,9,7)               0.0000000      SURF                                    
     88     (1,9,8)               0.0000000      SURF                                    
     89     (1,9,9)               0.0000000      SURF                                    
     90     (1,9,10)              0.0000000      SURF                                    
     91     (1,10,1)              0.0000000      SURF                                    
     92     (1,10,2)              0.0000000      SURF                                    
     93     (1,10,3)              0.0000000      SURF                                    
     94     (1,10,4)              0.0000000      SURF                                    
     95     (1,10,5)              0.0000000      SURF                                    
     96     (1,10,6)              0.0000000      SURF                                    
     97     (1,10,7)              0.0000000      SURF                                    
     98     (1,10,8)              0.0000000      SURF                                    
     99     (1,10,9)              0.0000000      SURF                                    
    100     (1,10,10)             0.0000000      SURF                                    
    101     (1,11,1)              0.0000000      SURF                                    
    102     (1,11,2)              0.0000000      SURF                                    
    103     (1,11,3)              0.0000000      SURF                                    
    104     (1,11,4)              0.0000000      SURF                                    
    105     (1,11,5)              0.0000000      SURF                                    
    106     (1,11,6)              0.0000000      SURF                                    
    107     (1,11,7)              0.0000000      SURF                                    
    108     (1,11,8)              0.0000000      SURF                                    
    109     (1,11,9)              0.0000000      SURF                                    
    110     (1,11,10)             0.0000000      SURF                                    
    111     (1,12,1)              0.0000000      SURF                                    
    112     (1,12,2)              0.0000000      SURF                                    
    113     (1,12,3)              0.0000000      SURF                                    
    114     (1,12,4)              0.0000000      SURF                                    
    115     (1,12,5)              0.0000000      SURF                                    
    116     (1,12,6)              0.0000000      SURF                                    
    117     (1,12,7)              0.0000000      SURF                                    
    118     (1,12,8)              0.0000000      SURF                                    
    119     (1,12,9)              0.0000000      SURF                                    
    120     (1,12,10)             0.0000000      SURF                                    
    121     (1,13,1)              0.0000000      SURF                                    
    122     (1,13,2)              0.0000000      SURF                                    
    123     (1,13,3)              0.0000000      SURF                                    
    124     (1,13,4)              0.0000000      SURF                                    
    125     (1,13,5)              0.0000000      SURF                                    
    126     (1,13,6)              0.0000000      SURF                                    
    127     (1,13,7)              0.0000000      SURF                                    
    128     (1,13,8)              0.0000000      SURF                                    
    129     (1,13,9)              0.0000000      SURF                                    
    130     (1,13,10)             0.0000000      SURF                                    
    131     (1,14,1)              0.0000000      SURF                                    
    132     (1,14,2)              0.0000000      SURF                                    
    133     (1,14,3)              0.0000000      SURF                                    
    134     (1,14,4)              0.0000000      SURF                                    
    135     (1,14,5)              0.0000000      SURF                                    
    136     (1,14,6)              0.0000000      SURF                                    
    137     (1,14,7)              0.0000000      SURF                                    
    138     (1,14,8)              0.0000000      SURF                                    
    139     (1,14,9)              0.0000000      SURF                                    
    140     (1,14,10)             0.0000000      SURF                                    
    141     (1,15,1)              0.0000000      SURF                                    
    142     (1,15,2)              0.0000000      SURF                                    
    143     (1,15,3)              0.0000000      SURF                                    
    144     (1,15,4)              0.0000000      SURF                                    
    145     (1,15,5)              0.0000000      SURF                                    
    146     (1,15,6)              0.0000000      SURF                                    
    147     (1,15,7)              0.0000000      SURF                                    
    148     (1,15,8)              0.0000000      SURF                                    
    149     (1,15,9)              0.0000000      SURF                                    
    150     (1,15,10)             0.0000000      SURF                                    
 ----------------------------------------------------------------------------------------




 API PACKAGE (MAR) FLOW RATES   PERIOD      2   STEP       97
 -----------------------------------------------
   NUMBER   CELLID                    RATE      
 -----------------------------------------------
     1      (1,6,5)               35.919105     
     2      (1,6,6)               35.919105     
     3      (1,6,7)               35.919105     
     4      (1,10,5)              32.165866     
     5      (1,10,6)              32.165866     
     6      (1,10,7)              32.165866     
 -----------------------------------------------



1
  HEAD IN LAYER   1 AT END OF TIME STEP  97 IN STRESS PERIOD    2
  ---------------------------------------------------------------------------

            1           2           3           4           5           6           7           8           9          10
 ........................................................................................................................
   1   2.7289E-02  3.5501E-02  5.0706E-02  6.9528E-02  8.5801E-02  9.2549E-02  8.7263E-02  7.3164E-02  5.7996E-02  4.8632E-02
   2   3.3153E-02  4.4572E-02  6.6577E-02  9.5434E-02  0.1218      0.1325      0.1235      9.9709E-02  7.5353E-02  6.0912E-02
   3   4.1423E-02  5.8812E-02  9.4705E-02  0.1467      0.1993      0.2194      0.2013      0.1518      0.1055      7.9929E-02
   4   4.4430E-02  6.8359E-02  0.1236      0.2177      0.3320      0.3682      0.3340      0.2228      0.1348      9.1888E-02
   5   3.0890E-02  5.5074E-02  0.1240      0.2820      0.5565      0.6025      0.5577      0.2852      0.1313      7.2131E-02
   6  -7.8657E-03 -3.9349E-03  3.4063E-02  0.2275       1.000      0.9290       1.000      0.2267      3.1567E-02 -8.5367E-03
   7  -6.2342E-02 -0.1099     -0.2278     -0.4726     -0.9771      -2.170     -0.9788     -0.4783     -0.2433     -0.1477    
   8  -9.0762E-02 -0.1705     -0.3968     -0.9949      -2.744      -9.254      -2.747      -1.003     -0.4192     -0.2264    
   9  -6.5203E-02 -0.1149     -0.2395     -0.5018      -1.041      -2.247      -1.043     -0.5078     -0.2557     -0.1542    
  10  -1.2742E-02 -1.2361E-02  1.3710E-02  0.1716      0.8474      0.7546      0.8470      0.1702      1.0070E-02 -1.9394E-02
  11   2.5527E-02  4.6918E-02  0.1077      0.2470      0.4890      0.5245      0.4900      0.2495      0.1138      6.1485E-02
  12   3.9512E-02  6.1779E-02  0.1128      0.1989      0.3023      0.3343      0.3039      0.2033      0.1228      8.3181E-02
  13   3.7258E-02  5.3714E-02  8.7561E-02  0.1363      0.1851      0.2036      0.1868      0.1407      9.7261E-02  7.3115E-02
  14   2.9683E-02  4.0521E-02  6.1404E-02  8.8737E-02  0.1136      0.1236      0.1151      9.2489E-02  6.9272E-02  5.5463E-02
  15   2.4231E-02  3.1995E-02  4.6397E-02  6.4248E-02  7.9671E-02  8.6025E-02  8.0922E-02  6.7416E-02  5.2881E-02  4.3901E-02

 HEAD WILL BE SAVED ON UNIT 1100 AT END OF TIME STEP   97, STRESS PERIOD    2


  VOLUME BUDGET FOR ENTIRE MODEL AT END OF TIME STEP   97, STRESS PERIOD   2
  ---------------------------------------------------------------------------------------------------

     CUMULATIVE VOLUME      L**3       RATES FOR THIS TIME STEP      L**3/T          PACKAGE NAME    
     ------------------                 ------------------------                     ----------------

           IN:                                      IN:
           ---                                      ---
              STO-SS =          26.0719                STO-SS =       7.1294E-03     STORAGE                          
              STO-SY =       63811.1389                STO-SY =          14.7374     STORAGE                          
                 WEL =           0.0000                   WEL =           0.0000     WEL-1                            
                 DRN =           0.0000                   DRN =           0.0000     DRN-0                            
                 API =      198485.2420                   API =         204.2549     MAR                              
                 CHD =       2.0279E-08                   CHD =           0.0000     CHD_0                            

            TOTAL IN =      262322.4528              TOTAL IN =         218.9994

          OUT:                                     OUT:
          ----                                     ----
              STO-SS =          22.6341                STO-SS =       7.4510E-03     STORAGE                          
              STO-SY =       44245.1386                STO-SY =          14.7228     STORAGE                          
                 WEL =      218054.0483                   WEL =         204.2549     WEL-1                            
                 DRN =           0.6318                   DRN =       1.4235E-02     DRN-0                            
                 API =           0.0000                   API =           0.0000     MAR                              
                 CHD =       2.0705E-08                   CHD =           0.0000     CHD_0                            

           TOTAL OUT =      262322.4528             TOTAL OUT =         218.9994

            IN - OUT =      -8.1776E-07              IN - OUT =       1.9704E-09

 PERCENT DISCREPANCY =          -0.00     PERCENT DISCREPANCY =           0.00




         TIME SUMMARY AT END OF TIME STEP   97 IN STRESS PERIOD    2
                    SECONDS     MINUTES      HOURS       DAYS        YEARS
                    -----------------------------------------------------------
   TIME STEP LENGTH 8.64000E+05  14400.      240.00      10.000     2.73785E-02
 STRESS PERIOD TIME 8.38080E+07 1.39680E+06  23280.      970.00      2.6557    
         TOTAL TIME 8.38944E+07 1.39824E+06  23304.      971.00      2.6585    


end timestep


start timestep kper="2" kstp="98" mode="normal"

 UBDSV1 SAVING           STO-SS ON UNIT   1099 AT TIME STEP     98, STRESS PERIOD      2
 UBDSV1 SAVING           STO-SY ON UNIT   1099 AT TIME STEP     98, STRESS PERIOD      2
 UBDSV1 SAVING     FLOW-JA-FACE ON UNIT   1099 AT TIME STEP     98, STRESS PERIOD      2
 UBDSV06 SAVING       DATA-SPDIS IN MODEL GWF              PACKAGE NPF             CONNECTED TO MODEL GWF              PACKAGE NPF              ON UNIT   1099 AT TIME STEP     98, STRESS PERIOD      2
 UBDSV06 SAVING              WEL IN MODEL GWF              PACKAGE GWF             CONNECTED TO MODEL GWF              PACKAGE WEL-1            ON UNIT   1099 AT TIME STEP     98, STRESS PERIOD      2
 UBDSV06 SAVING              DRN IN MODEL GWF              PACKAGE GWF             CONNECTED TO MODEL GWF              PACKAGE DRN-0            ON UNIT   1099 AT TIME STEP     98, STRESS PERIOD      2
 UBDSV06 SAVING              API IN MODEL GWF              PACKAGE GWF             CONNECTED TO MODEL GWF              PACKAGE MAR              ON UNIT   1099 AT TIME STEP     98, STRESS PERIOD      2
 UBDSV06 SAVING              CHD IN MODEL GWF              PACKAGE GWF             CONNECTED TO MODEL GWF              PACKAGE CHD_0            ON UNIT   1099 AT TIME STEP     98, STRESS PERIOD      2

    CALCULATED INTERCELL FLOW FOR PERIOD 2 STEP 98
(1,1,1): (1,1,2) 8.342171E-02 (1,2,1) 5.868517E-02
(1,1,2): (1,1,1) -8.342171E-02 (1,1,3) 0.154562 (1,2,2) 9.095459E-02
(1,1,3): (1,1,2) -0.154562 (1,1,4) 0.191523 (1,2,3) 0.159622
(1,1,4): (1,1,3) -0.191523 (1,1,5) 0.165752 (1,2,4) 0.261427
(1,1,5): (1,1,4) -0.165752 (1,1,6) 6.885941E-02 (1,2,5) 0.364359
(1,1,6): (1,1,5) -6.885941E-02 (1,1,7) -5.362118E-02 (1,2,6) 0.404826
(1,1,7): (1,1,6) 5.362118E-02 (1,1,8) -0.143241 (1,2,7) 0.366776
(1,1,8): (1,1,7) 0.143241 (1,1,9) -0.153993 (1,2,8) 0.267979
(1,1,9): (1,1,8) 0.153993 (1,1,10) -9.497218E-02 (1,2,9) 0.174680
(1,1,10): (1,1,9) 9.497218E-02 (1,2,10) 0.123316
(1,2,1): (1,1,1) -5.868517E-02 (1,2,2) 0.115699 (1,3,1) 8.215948E-02
(1,2,2): (1,1,2) -9.095459E-02 (1,2,1) -0.115699 (1,2,3) 0.223272 (1,3,2) 0.142269
(1,2,3): (1,1,3) -0.159622 (1,2,2) -0.223272 (1,2,4) 0.293360 (1,3,3) 0.282897
(1,2,4): (1,1,4) -0.261427 (1,2,3) -0.293360 (1,2,5) 0.268588 (1,3,4) 0.519324
(1,2,5): (1,1,5) -0.364359 (1,2,4) -0.268588 (1,2,6) 0.109211 (1,3,5) 0.789767
(1,2,6): (1,1,6) -0.404826 (1,2,5) -0.109211 (1,2,7) -9.155638E-02 (1,3,6) 0.887033
(1,2,7): (1,1,7) -0.366776 (1,2,6) 9.155638E-02 (1,2,8) -0.241918 (1,3,7) 0.792654
(1,2,8): (1,1,8) -0.267979 (1,2,7) 0.241918 (1,2,9) -0.247273 (1,3,8) 0.527476
(1,2,9): (1,1,9) -0.174680 (1,2,8) 0.247273 (1,2,10) -0.146322 (1,3,9) 0.303091
(1,2,10): (1,1,10) -0.123316 (1,2,9) 0.146322 (1,3,10) 0.190322
(1,3,1): (1,2,1) -8.215948E-02 (1,3,2) 0.175829 (1,4,1) 2.780628E-02
(1,3,2): (1,2,2) -0.142269 (1,3,1) -0.175829 (1,3,3) 0.364011 (1,4,2) 9.347738E-02
(1,3,3): (1,2,3) -0.282897 (1,3,2) -0.364011 (1,3,4) 0.529811 (1,4,3) 0.289133
(1,3,4): (1,2,4) -0.519324 (1,3,3) -0.529811 (1,3,5) 0.538385 (1,4,4) 0.722484
(1,3,5): (1,2,5) -0.789767 (1,3,4) -0.538385 (1,3,6) 0.205853 (1,4,5) 1.36839
(1,3,6): (1,2,6) -0.887033 (1,3,5) -0.205853 (1,3,7) -0.185311 (1,4,6) 1.54043
(1,3,7): (1,2,7) -0.792654 (1,3,6) 0.185311 (1,3,8) -0.506374 (1,4,7) 1.36809
(1,3,8): (1,2,8) -0.527476 (1,3,7) 0.506374 (1,3,9) -0.471537 (1,4,8) 0.722495
(1,3,9): (1,2,9) -0.303091 (1,3,8) 0.471537 (1,3,10) -0.259042 (1,4,9) 0.293315
(1,3,10): (1,2,10) -0.190322 (1,3,9) 0.259042 (1,4,10) 0.117010
(1,4,1): (1,3,1) -2.780628E-02 (1,4,2) 0.241596 (1,5,1) -0.140223
(1,4,2): (1,3,2) -9.347738E-02 (1,4,1) -0.241596 (1,4,3) 0.560183 (1,5,2) -0.138416
(1,4,3): (1,3,3) -0.289133 (1,4,2) -0.560183 (1,4,4) 0.964158 (1,5,3) -8.570664E-04
(1,4,4): (1,3,4) -0.722484 (1,4,3) -0.964158 (1,4,5) 1.18318 (1,5,4) 0.655790
(1,4,5): (1,3,5) -1.36839 (1,4,4) -1.18318 (1,4,6) 0.376086 (1,5,5) 2.36476
(1,4,6): (1,3,6) -1.54043 (1,4,5) -0.376086 (1,4,7) -0.355799 (1,5,6) 2.47930
(1,4,7): (1,3,7) -1.36809 (1,4,6) 0.355799 (1,4,8) -1.15068 (1,5,7) 2.35748
(1,4,8): (1,3,8) -0.722495 (1,4,7) 1.15068 (1,4,9) -0.901447 (1,5,8) 0.636306
(1,4,9): (1,3,9) -0.293315 (1,4,8) 0.901447 (1,4,10) -0.435592 (1,5,9) -4.125725E-02
(1,4,10): (1,3,10) -0.117010 (1,4,9) 0.435592 (1,5,10) -0.205786
(1,5,1): (1,4,1) 0.140223 (1,5,2) 0.243406 (1,6,1) -0.394046
(1,5,2): (1,4,2) 0.138416 (1,5,1) -0.243406 (1,5,3) 0.698496 (1,6,2) -0.599223
(1,5,3): (1,4,3) 8.570664E-04 (1,5,2) -0.698496 (1,5,4) 1.62684 (1,6,3) -0.916898
(1,5,4): (1,4,4) -0.655790 (1,5,3) -1.62684 (1,5,5) 2.90028 (1,6,4) -0.567176
(1,5,5): (1,4,5) -2.36476 (1,5,4) -2.90028 (1,5,6) 0.488786 (1,6,5) 4.87319
(1,5,6): (1,4,6) -2.47930 (1,5,5) -0.488786 (1,5,7) -0.475627 (1,6,6) 3.56428
(1,5,7): (1,4,7) -2.35748 (1,5,6) 0.475627 (1,5,8) -2.87984 (1,6,7) 4.85954
(1,5,8): (1,4,8) -0.636306 (1,5,7) 2.87984 (1,5,9) -1.58508 (1,6,8) -0.609597
(1,5,9): (1,4,9) 4.125725E-02 (1,5,8) 1.58508 (1,5,10) -0.600756 (1,6,9) -1.01869
(1,5,10): (1,4,10) 0.205786 (1,5,9) 0.600756 (1,6,10) -0.820554
(1,6,1): (1,5,1) 0.394046 (1,6,2) 3.894689E-02 (1,7,1) -0.548959
(1,6,2): (1,5,2) 0.599223 (1,6,1) -3.894689E-02 (1,6,3) 0.381490 (1,7,2) -1.06459
(1,6,3): (1,5,3) 0.916898 (1,6,2) -0.381490 (1,6,4) 1.98021 (1,7,3) -2.63371
(1,6,4): (1,5,4) 0.567176 (1,6,3) -1.98021 (1,6,5) 8.50194 (1,7,4) -7.16736
(1,6,5): (1,5,5) -4.87319 (1,6,4) -8.50194 (1,6,6) -0.778745 (1,7,5) -21.7559
(1,6,6): (1,5,6) -3.56428 (1,6,5) 0.778745 (1,6,7) 0.778744 (1,7,6) -33.8777
(1,6,7): (1,5,7) -4.85954 (1,6,6) -0.778744 (1,6,8) -8.51182 (1,7,7) -21.7754
(1,6,8): (1,5,8) 0.609597 (1,6,7) 8.51182 (1,6,9) -1.99808 (1,7,8) -7.21774
(1,6,9): (1,5,9) 1.01869 (1,6,8) 1.99808 (1,6,10) -0.403408 (1,7,9) -2.76486
(1,6,10): (1,5,10) 0.820554 (1,6,9) 0.403408 (1,7,10) -1.39810
(1,7,1): (1,6,1) 0.548959 (1,7,2) -0.473662 (1,8,1) -0.284492
(1,7,2): (1,6,2) 1.06459 (1,7,1) 0.473662 (1,7,3) -1.16653 (1,8,2) -0.601431
(1,7,3): (1,6,3) 2.63371 (1,7,2) 1.16653 (1,7,4) -2.39101 (1,8,3) -1.65554
(1,7,4): (1,6,4) 7.16736 (1,7,3) 2.39101 (1,7,5) -4.80209 (1,8,4) -4.98110
(1,7,5): (1,6,5) 21.7559 (1,7,4) 4.80209 (1,7,6) -10.7610 (1,8,5) -15.9467
(1,7,6): (1,6,6) 33.8777 (1,7,5) 10.7610 (1,7,7) 10.7429 (1,8,6) -55.4580
(1,7,7): (1,6,7) 21.7754 (1,7,6) -10.7429 (1,7,8) 4.75994 (1,8,7) -15.9534
(1,7,8): (1,6,8) 7.21774 (1,7,7) -4.75994 (1,7,9) 2.29035 (1,8,8) -5.00426
(1,7,9): (1,6,9) 2.76486 (1,7,8) -2.29035 (1,7,10) 0.940523 (1,8,9) -1.72038
(1,7,10): (1,6,10) 1.39810 (1,7,9) -0.940523 (1,8,10) -0.778043
(1,8,1): (1,7,1) 0.284492 (1,8,2) -0.791214 (1,9,1) 0.255319
(1,8,2): (1,7,2) 0.601431 (1,8,1) 0.791214 (1,8,3) -2.22685 (1,9,2) 0.550225
(1,8,3): (1,7,3) 1.65554 (1,8,2) 2.22685 (1,8,4) -5.74318 (1,9,3) 1.53527
(1,8,4): (1,7,4) 4.98110 (1,8,3) 5.74318 (1,8,5) -15.7443 (1,9,4) 4.68062
(1,8,5): (1,7,5) 15.9467 (1,8,4) 15.7443 (1,8,6) -47.2169 (1,9,5) 15.2443
(1,8,6): (1,7,6) 55.4580 (1,8,5) 47.2169 (1,8,7) 47.1776 (1,9,6) 54.2865
(1,8,7): (1,7,7) 15.9534 (1,8,6) -47.1776 (1,8,8) 15.6771 (1,9,7) 15.2490
(1,8,8): (1,7,8) 5.00426 (1,8,7) -15.6771 (1,8,9) 5.59464 (1,9,8) 4.70024
(1,8,9): (1,7,9) 1.72038 (1,8,8) -5.59464 (1,8,10) 1.88446 (1,9,9) 1.59322
(1,8,10): (1,7,10) 0.778043 (1,8,9) -1.88446 (1,9,10) 0.711926
(1,9,1): (1,8,1) -0.255319 (1,9,2) -0.495583 (1,10,1) 0.528180
(1,9,2): (1,8,2) -0.550225 (1,9,1) 0.495583 (1,9,3) -1.23477 (1,10,2) 1.02852
(1,9,3): (1,8,3) -1.53527 (1,9,2) 1.23477 (1,9,4) -2.56250 (1,10,3) 2.53965
(1,9,4): (1,8,4) -4.68062 (1,9,3) 2.56250 (1,9,5) -5.12410 (1,10,4) 6.85035
(1,9,5): (1,8,5) -15.2443 (1,9,4) 5.12410 (1,9,6) -10.8036 (1,10,5) 20.4751
(1,9,6): (1,8,6) -54.2865 (1,9,5) 10.8036 (1,9,7) 10.7836 (1,10,6) 32.2682
(1,9,7): (1,8,7) -15.2490 (1,9,6) -10.7836 (1,9,8) 5.08006 (1,10,7) 20.4907
(1,9,8): (1,8,8) -4.70024 (1,9,7) -5.08006 (1,9,9) 2.45817 (1,10,8) 6.89773
(1,9,9): (1,8,9) -1.59322 (1,9,8) -2.45817 (1,9,10) 1.00050 (1,10,9) 2.66564
(1,9,10): (1,8,10) -0.711926 (1,9,9) -1.00050 (1,10,10) 1.35157
(1,10,1): (1,9,1) -0.528180 (1,10,2) 2.100863E-03 (1,11,1) 0.389016
(1,10,2): (1,9,2) -1.02852 (1,10,1) -2.100863E-03 (1,10,3) 0.257624 (1,11,2) 0.601719
(1,10,3): (1,9,3) -2.53965 (1,10,2) -0.257624 (1,10,4) 1.60036 (1,11,3) 0.957622
(1,10,4): (1,9,4) -6.85035 (1,10,3) -1.60036 (1,10,5) 7.31844 (1,11,4) 0.781879
(1,10,5): (1,9,5) -20.4751 (1,10,4) -7.31844 (1,10,6) -1.00868 (1,11,5) -3.87009
(1,10,6): (1,9,6) -32.2682 (1,10,5) 1.00868 (1,10,7) 1.00387 (1,11,6) -2.45717
(1,10,7): (1,9,7) -20.4907 (1,10,6) -1.00387 (1,10,8) -7.32953 (1,11,7) -3.85510
(1,10,8): (1,9,8) -6.89773 (1,10,7) 7.32953 (1,10,9) -1.62390 (1,11,8) 0.823251
(1,10,9): (1,9,9) -2.66564 (1,10,8) 1.62390 (1,10,10) -0.292867 (1,11,9) 1.05767
(1,10,10): (1,9,10) -1.35157 (1,10,9) 0.292867 (1,11,10) 0.822167
(1,11,1): (1,10,1) -0.389016 (1,11,2) 0.213991 (1,12,1) 0.144890
(1,11,2): (1,10,2) -0.601719 (1,11,1) -0.213991 (1,11,3) 0.612336 (1,12,2) 0.154912
(1,11,3): (1,10,3) -0.957622 (1,11,2) -0.612336 (1,11,4) 1.42347 (1,12,3) 5.847877E-02
(1,11,4): (1,10,4) -0.781879 (1,11,3) -1.42347 (1,11,5) 2.53455 (1,12,4) -0.482558
(1,11,5): (1,10,5) 3.87009 (1,11,4) -2.53455 (1,11,6) 0.371626 (1,12,5) -1.94526
(1,11,6): (1,10,6) 2.45717 (1,11,5) -0.371626 (1,11,7) -0.361865 (1,12,6) -1.98775
(1,11,7): (1,10,7) 3.85510 (1,11,6) 0.361865 (1,11,8) -2.51799 (1,12,7) -1.93779
(1,11,8): (1,10,8) -0.823251 (1,11,7) 2.51799 (1,11,9) -1.38814 (1,12,8) -0.463040
(1,11,9): (1,10,9) -1.05767 (1,11,8) 1.38814 (1,11,10) -0.527171 (1,12,9) 9.957962E-02
(1,11,10): (1,10,10) -0.822167 (1,11,9) 0.527171 (1,12,10) 0.226119
(1,12,1): (1,11,1) -0.144890 (1,12,2) 0.224019 (1,13,1) -2.003060E-02
(1,12,2): (1,11,2) -0.154912 (1,12,1) -0.224019 (1,12,3) 0.515468 (1,13,2) -7.791663E-02
(1,12,3): (1,11,3) -5.847877E-02 (1,12,2) -0.515468 (1,12,4) 0.877606 (1,13,3) -0.250574
(1,12,4): (1,11,4) 0.482558 (1,12,3) -0.877606 (1,12,5) 1.06408 (1,13,4) -0.632606
(1,12,5): (1,11,5) 1.94526 (1,12,4) -1.06408 (1,12,6) 0.329656 (1,13,5) -1.19944
(1,12,6): (1,11,6) 1.98775 (1,12,5) -0.329656 (1,12,7) -0.312548 (1,13,6) -1.34178
(1,12,7): (1,11,7) 1.93779 (1,12,6) 0.312548 (1,12,8) -1.03552 (1,13,7) -1.19881
(1,12,8): (1,11,8) 0.463040 (1,12,7) 1.03552 (1,12,9) -0.820653 (1,13,8) -0.631861
(1,12,9): (1,11,9) -9.957962E-02 (1,12,8) 0.820653 (1,12,10) -0.400258 (1,13,9) -0.253043
(1,12,10): (1,11,10) -0.226119 (1,12,9) 0.400258 (1,13,10) -9.706117E-02
(1,13,1): (1,12,1) 2.003060E-02 (1,13,2) 0.166050 (1,14,1) -7.506893E-02
(1,13,2): (1,12,2) 7.791663E-02 (1,13,1) -0.166050 (1,13,3) 0.342364 (1,14,2) -0.131388
(1,13,3): (1,12,3) 0.250574 (1,13,2) -0.342364 (1,13,4) 0.494680 (1,14,3) -0.262047
(1,13,4): (1,12,4) 0.632606 (1,13,3) -0.494680 (1,13,5) 0.497958 (1,14,4) -0.479333
(1,13,5): (1,12,5) 1.19944 (1,13,4) -0.497958 (1,13,6) 0.188626 (1,14,5) -0.725027
(1,13,6): (1,12,6) 1.34178 (1,13,5) -0.188626 (1,13,7) -0.170918 (1,14,6) -0.812042
(1,13,7): (1,12,7) 1.19881 (1,13,6) 0.170918 (1,13,8) -0.469434 (1,14,7) -0.727507
(1,13,8): (1,12,8) 0.631861 (1,13,7) 0.469434 (1,13,9) -0.441151 (1,14,8) -0.486576
(1,13,9): (1,12,9) 0.253043 (1,13,8) 0.441151 (1,13,10) -0.244053 (1,14,9) -0.280520
(1,13,10): (1,12,10) 9.706117E-02 (1,13,9) 0.244053 (1,14,10) -0.176075
(1,14,1): (1,13,1) 7.506893E-02 (1,14,2) 0.109711 (1,15,1) -5.452918E-02
(1,14,2): (1,13,2) 0.131388 (1,14,1) -0.109711 (1,14,3) 0.211603 (1,15,2) -8.536409E-02
(1,14,3): (1,13,3) 0.262047 (1,14,2) -0.211603 (1,14,4) 0.277362 (1,15,3) -0.150577
(1,14,4): (1,13,4) 0.479333 (1,14,3) -0.277362 (1,14,5) 0.252797 (1,15,4) -0.246413
(1,14,5): (1,13,5) 0.725027 (1,14,4) -0.252797 (1,14,6) 0.102124 (1,15,5) -0.342389
(1,14,6): (1,13,6) 0.812042 (1,14,5) -0.102124 (1,14,7) -8.689653E-02 (1,15,6) -0.379851
(1,14,7): (1,13,7) 0.727507 (1,14,6) 8.689653E-02 (1,14,8) -0.229097 (1,15,7) -0.344539
(1,14,8): (1,13,8) 0.486576 (1,14,7) 0.229097 (1,14,9) -0.235185 (1,15,8) -0.252376
(1,14,9): (1,13,9) 0.280520 (1,14,8) 0.235185 (1,14,10) -0.139645 (1,15,9) -0.164587
(1,14,10): (1,13,10) 0.176075 (1,14,9) 0.139645 (1,15,10) -0.115916
(1,15,1): (1,14,1) 5.452918E-02 (1,15,2) 7.886867E-02
(1,15,2): (1,14,2) 8.536409E-02 (1,15,1) -7.886867E-02 (1,15,3) 0.146350
(1,15,3): (1,14,3) 0.150577 (1,15,2) -0.146350 (1,15,4) 0.181498
(1,15,4): (1,14,4) 0.246413 (1,15,3) -0.181498 (1,15,5) 0.156905
(1,15,5): (1,14,5) 0.342389 (1,15,4) -0.156905 (1,15,6) 6.476214E-02
(1,15,6): (1,14,6) 0.379851 (1,15,5) -6.476214E-02 (1,15,7) -5.168458E-02
(1,15,7): (1,14,7) 0.344539 (1,15,6) 5.168458E-02 (1,15,8) -0.137038
(1,15,8): (1,14,8) 0.252376 (1,15,7) 0.137038 (1,15,9) -0.147411
(1,15,9): (1,14,9) 0.164587 (1,15,8) 0.147411 (1,15,10) -9.098588E-02
(1,15,10): (1,14,10) 0.115916 (1,15,9) 9.098588E-02

 WEL PACKAGE (WEL-1) FLOW RATES   PERIOD      2   STEP       98
 ----------------------------------------------------------------------------------------
   NUMBER   CELLID                    RATE       NAME                                    
 ----------------------------------------------------------------------------------------
     1      (1,8,6)              -204.18343      WEL                                     
 ----------------------------------------------------------------------------------------




 DRN PACKAGE (DRN-0) FLOW RATES   PERIOD      2   STEP       98
 ----------------------------------------------------------------------------------------
   NUMBER   CELLID                    RATE       NAME                                    
 ----------------------------------------------------------------------------------------
     1      (1,1,1)               0.0000000      SURF                                    
     2      (1,1,2)               0.0000000      SURF                                    
     3      (1,1,3)               0.0000000      SURF                                    
     4      (1,1,4)               0.0000000      SURF                                    
     5      (1,1,5)               0.0000000      SURF                                    
     6      (1,1,6)               0.0000000      SURF                                    
     7      (1,1,7)               0.0000000      SURF                                    
     8      (1,1,8)               0.0000000      SURF                                    
     9      (1,1,9)               0.0000000      SURF                                    
     10     (1,1,10)              0.0000000      SURF                                    
     11     (1,2,1)               0.0000000      SURF                                    
     12     (1,2,2)               0.0000000      SURF                                    
     13     (1,2,3)               0.0000000      SURF                                    
     14     (1,2,4)               0.0000000      SURF                                    
     15     (1,2,5)               0.0000000      SURF                                    
     16     (1,2,6)               0.0000000      SURF                                    
     17     (1,2,7)               0.0000000      SURF                                    
     18     (1,2,8)               0.0000000      SURF                                    
     19     (1,2,9)               0.0000000      SURF                                    
     20     (1,2,10)              0.0000000      SURF                                    
     21     (1,3,1)               0.0000000      SURF                                    
     22     (1,3,2)               0.0000000      SURF                                    
     23     (1,3,3)               0.0000000      SURF                                    
     24     (1,3,4)               0.0000000      SURF                                    
     25     (1,3,5)               0.0000000      SURF                                    
     26     (1,3,6)               0.0000000      SURF                                    
     27     (1,3,7)               0.0000000      SURF                                    
     28     (1,3,8)               0.0000000      SURF                                    
     29     (1,3,9)               0.0000000      SURF                                    
     30     (1,3,10)              0.0000000      SURF                                    
     31     (1,4,1)               0.0000000      SURF                                    
     32     (1,4,2)               0.0000000      SURF                                    
     33     (1,4,3)               0.0000000      SURF                                    
     34     (1,4,4)               0.0000000      SURF                                    
     35     (1,4,5)               0.0000000      SURF                                    
     36     (1,4,6)               0.0000000      SURF                                    
     37     (1,4,7)               0.0000000      SURF                                    
     38     (1,4,8)               0.0000000      SURF                                    
     39     (1,4,9)               0.0000000      SURF                                    
     40     (1,4,10)              0.0000000      SURF                                    
     41     (1,5,1)               0.0000000      SURF                                    
     42     (1,5,2)               0.0000000      SURF                                    
     43     (1,5,3)               0.0000000      SURF                                    
     44     (1,5,4)               0.0000000      SURF                                    
     45     (1,5,5)               0.0000000      SURF                                    
     46     (1,5,6)               0.0000000      SURF                                    
     47     (1,5,7)               0.0000000      SURF                                    
     48     (1,5,8)               0.0000000      SURF                                    
     49     (1,5,9)               0.0000000      SURF                                    
     50     (1,5,10)              0.0000000      SURF                                    
     51     (1,6,1)               0.0000000      SURF                                    
     52     (1,6,2)               0.0000000      SURF                                    
     53     (1,6,3)               0.0000000      SURF                                    
     54     (1,6,4)               0.0000000      SURF                                    
     55     (1,6,5)              -1.56845306E-02 SURF                                    
     56     (1,6,6)               0.0000000      SURF                                    
     57     (1,6,7)              -3.14059434E-07 SURF                                    
     58     (1,6,8)               0.0000000      SURF                                    
     59     (1,6,9)               0.0000000      SURF                                    
     60     (1,6,10)              0.0000000      SURF                                    
     61     (1,7,1)               0.0000000      SURF                                    
     62     (1,7,2)               0.0000000      SURF                                    
     63     (1,7,3)               0.0000000      SURF                                    
     64     (1,7,4)               0.0000000      SURF                                    
     65     (1,7,5)               0.0000000      SURF                                    
     66     (1,7,6)               0.0000000      SURF                                    
     67     (1,7,7)               0.0000000      SURF                                    
     68     (1,7,8)               0.0000000      SURF                                    
     69     (1,7,9)               0.0000000      SURF                                    
     70     (1,7,10)              0.0000000      SURF                                    
     71     (1,8,1)               0.0000000      SURF                                    
     72     (1,8,2)               0.0000000      SURF                                    
     73     (1,8,3)               0.0000000      SURF                                    
     74     (1,8,4)               0.0000000      SURF                                    
     75     (1,8,5)               0.0000000      SURF                                    
     76     (1,8,6)               0.0000000      SURF                                    
     77     (1,8,7)               0.0000000      SURF                                    
     78     (1,8,8)               0.0000000      SURF                                    
     79     (1,8,9)               0.0000000      SURF                                    
     80     (1,8,10)              0.0000000      SURF                                    
     81     (1,9,1)               0.0000000      SURF                                    
     82     (1,9,2)               0.0000000      SURF                                    
     83     (1,9,3)               0.0000000      SURF                                    
     84     (1,9,4)               0.0000000      SURF                                    
     85     (1,9,5)               0.0000000      SURF                                    
     86     (1,9,6)               0.0000000      SURF                                    
     87     (1,9,7)               0.0000000      SURF                                    
     88     (1,9,8)               0.0000000      SURF                                    
     89     (1,9,9)               0.0000000      SURF                                    
     90     (1,9,10)              0.0000000      SURF                                    
     91     (1,10,1)              0.0000000      SURF                                    
     92     (1,10,2)              0.0000000      SURF                                    
     93     (1,10,3)              0.0000000      SURF                                    
     94     (1,10,4)              0.0000000      SURF                                    
     95     (1,10,5)              0.0000000      SURF                                    
     96     (1,10,6)              0.0000000      SURF                                    
     97     (1,10,7)              0.0000000      SURF                                    
     98     (1,10,8)              0.0000000      SURF                                    
     99     (1,10,9)              0.0000000      SURF                                    
    100     (1,10,10)             0.0000000      SURF                                    
    101     (1,11,1)              0.0000000      SURF                                    
    102     (1,11,2)              0.0000000      SURF                                    
    103     (1,11,3)              0.0000000      SURF                                    
    104     (1,11,4)              0.0000000      SURF                                    
    105     (1,11,5)              0.0000000      SURF                                    
    106     (1,11,6)              0.0000000      SURF                                    
    107     (1,11,7)              0.0000000      SURF                                    
    108     (1,11,8)              0.0000000      SURF                                    
    109     (1,11,9)              0.0000000      SURF                                    
    110     (1,11,10)             0.0000000      SURF                                    
    111     (1,12,1)              0.0000000      SURF                                    
    112     (1,12,2)              0.0000000      SURF                                    
    113     (1,12,3)              0.0000000      SURF                                    
    114     (1,12,4)              0.0000000      SURF                                    
    115     (1,12,5)              0.0000000      SURF                                    
    116     (1,12,6)              0.0000000      SURF                                    
    117     (1,12,7)              0.0000000      SURF                                    
    118     (1,12,8)              0.0000000      SURF                                    
    119     (1,12,9)              0.0000000      SURF                                    
    120     (1,12,10)             0.0000000      SURF                                    
    121     (1,13,1)              0.0000000      SURF                                    
    122     (1,13,2)              0.0000000      SURF                                    
    123     (1,13,3)              0.0000000      SURF                                    
    124     (1,13,4)              0.0000000      SURF                                    
    125     (1,13,5)              0.0000000      SURF                                    
    126     (1,13,6)              0.0000000      SURF                                    
    127     (1,13,7)              0.0000000      SURF                                    
    128     (1,13,8)              0.0000000      SURF                                    
    129     (1,13,9)              0.0000000      SURF                                    
    130     (1,13,10)             0.0000000      SURF                                    
    131     (1,14,1)              0.0000000      SURF                                    
    132     (1,14,2)              0.0000000      SURF                                    
    133     (1,14,3)              0.0000000      SURF                                    
    134     (1,14,4)              0.0000000      SURF                                    
    135     (1,14,5)              0.0000000      SURF                                    
    136     (1,14,6)              0.0000000      SURF                                    
    137     (1,14,7)              0.0000000      SURF                                    
    138     (1,14,8)              0.0000000      SURF                                    
    139     (1,14,9)              0.0000000      SURF                                    
    140     (1,14,10)             0.0000000      SURF                                    
    141     (1,15,1)              0.0000000      SURF                                    
    142     (1,15,2)              0.0000000      SURF                                    
    143     (1,15,3)              0.0000000      SURF                                    
    144     (1,15,4)              0.0000000      SURF                                    
    145     (1,15,5)              0.0000000      SURF                                    
    146     (1,15,6)              0.0000000      SURF                                    
    147     (1,15,7)              0.0000000      SURF                                    
    148     (1,15,8)              0.0000000      SURF                                    
    149     (1,15,9)              0.0000000      SURF                                    
    150     (1,15,10)             0.0000000      SURF                                    
 ----------------------------------------------------------------------------------------




 API PACKAGE (MAR) FLOW RATES   PERIOD      2   STEP       98
 -----------------------------------------------
   NUMBER   CELLID                    RATE      
 -----------------------------------------------
     1      (1,6,5)               35.925507     
     2      (1,6,6)               35.925507     
     3      (1,6,7)               35.925507     
     4      (1,10,5)              32.135637     
     5      (1,10,6)              32.135637     
     6      (1,10,7)              32.135637     
 -----------------------------------------------



1
  HEAD IN LAYER   1 AT END OF TIME STEP  98 IN STRESS PERIOD    2
  ---------------------------------------------------------------------------

            1           2           3           4           5           6           7           8           9          10
 ........................................................................................................................
   1   2.7999E-02  3.6311E-02  5.1688E-02  7.0706E-02  8.7138E-02  9.3960E-02  8.8648E-02  7.4449E-02  5.9164E-02  4.9723E-02
   2   3.3848E-02  4.5366E-02  6.7543E-02  9.6599E-02  0.1231      0.1339      0.1249      0.1010      7.6499E-02  6.1978E-02
   3   4.2030E-02  5.9509E-02  9.5565E-02  0.1478      0.2006      0.2207      0.2026      0.1529      0.1065      8.0858E-02
   4   4.4798E-02  6.8793E-02  0.1241      0.2185      0.3330      0.3693      0.3349      0.2236      0.1354      9.2451E-02
   5   3.0838E-02  5.5046E-02  0.1240      0.2823      0.5570      0.6031      0.5582      0.2855      0.1314      7.2061E-02
   6  -8.4452E-03 -4.5487E-03  3.3473E-02  0.2271       1.000      0.9292       1.000      0.2262      3.0810E-02 -9.4070E-03
   7  -6.3388E-02 -0.1111     -0.2290     -0.4737     -0.9778      -2.171     -0.9796     -0.4796     -0.2448     -0.1493    
   8  -9.2018E-02 -0.1719     -0.3985     -0.9966      -2.745      -9.254      -2.748      -1.005     -0.4212     -0.2283    
   9  -6.6316E-02 -0.1162     -0.2411     -0.5037      -1.043      -2.250      -1.045     -0.5100     -0.2576     -0.1560    
  10  -1.3427E-02 -1.3217E-02  1.2514E-02  0.1699      0.8447      0.7517      0.8443      0.1684      8.6856E-03 -2.0576E-02
  11   2.5376E-02  4.6676E-02  0.1073      0.2462      0.4879      0.5232      0.4888      0.2487      0.1133      6.1141E-02
  12   3.9808E-02  6.2072E-02  0.1130      0.1991      0.3024      0.3343      0.3040      0.2035      0.1231      8.3566E-02
  13   3.7813E-02  5.4328E-02  8.8265E-02  0.1371      0.1860      0.2044      0.1877      0.1416      9.8108E-02  7.3940E-02
  14   3.0334E-02  4.1260E-02  6.2289E-02  8.9779E-02  0.1148      0.1249      0.1163      9.3629E-02  7.0329E-02  5.6462E-02
  15   2.4898E-02  3.2759E-02  4.7325E-02  6.5357E-02  8.0921E-02  8.7341E-02  8.2218E-02  6.8626E-02  5.3985E-02  4.4935E-02

 HEAD WILL BE SAVED ON UNIT 1100 AT END OF TIME STEP   98, STRESS PERIOD    2


  VOLUME BUDGET FOR ENTIRE MODEL AT END OF TIME STEP   98, STRESS PERIOD   2
  ---------------------------------------------------------------------------------------------------

     CUMULATIVE VOLUME      L**3       RATES FOR THIS TIME STEP      L**3/T          PACKAGE NAME    
     ------------------                 ------------------------                     ----------------

           IN:                                      IN:
           ---                                      ---
              STO-SS =          26.1424                STO-SS =       7.0559E-03     STORAGE                          
              STO-SY =       63956.9692                STO-SY =          14.5830     STORAGE                          
                 WEL =           0.0000                   WEL =           0.0000     WEL-1                            
                 DRN =           0.0000                   DRN =           0.0000     DRN-0                            
                 API =      200527.0763                   API =         204.1834     MAR                              
                 CHD =       2.0279E-08                   CHD =           0.0000     CHD_0                            

            TOTAL IN =      264510.1880              TOTAL IN =         218.7735

          OUT:                                     OUT:
          ----                                     ----
              STO-SS =          22.7078                STO-SS =       7.3724E-03     STORAGE                          
              STO-SY =       44390.8089                STO-SY =          14.5670     STORAGE                          
                 WEL =      220095.8826                   WEL =         204.1834     WEL-1                            
                 DRN =           0.7887                   DRN =       1.5685E-02     DRN-0                            
                 API =           0.0000                   API =           0.0000     MAR                              
                 CHD =       2.0705E-08                   CHD =           0.0000     CHD_0                            

           TOTAL OUT =      264510.1880             TOTAL OUT =         218.7735

            IN - OUT =      -7.9791E-07              IN - OUT =       1.9913E-09

 PERCENT DISCREPANCY =          -0.00     PERCENT DISCREPANCY =           0.00




         TIME SUMMARY AT END OF TIME STEP   98 IN STRESS PERIOD    2
                    SECONDS     MINUTES      HOURS       DAYS        YEARS
                    -----------------------------------------------------------
   TIME STEP LENGTH 8.64000E+05  14400.      240.00      10.000     2.73785E-02
 STRESS PERIOD TIME 8.46720E+07 1.41120E+06  23520.      980.00      2.6831    
         TOTAL TIME 8.47584E+07 1.41264E+06  23544.      981.00      2.6858    


end timestep


start timestep kper="2" kstp="99" mode="normal"

 UBDSV1 SAVING           STO-SS ON UNIT   1099 AT TIME STEP     99, STRESS PERIOD      2
 UBDSV1 SAVING           STO-SY ON UNIT   1099 AT TIME STEP     99, STRESS PERIOD      2
 UBDSV1 SAVING     FLOW-JA-FACE ON UNIT   1099 AT TIME STEP     99, STRESS PERIOD      2
 UBDSV06 SAVING       DATA-SPDIS IN MODEL GWF              PACKAGE NPF             CONNECTED TO MODEL GWF              PACKAGE NPF              ON UNIT   1099 AT TIME STEP     99, STRESS PERIOD      2
 UBDSV06 SAVING              WEL IN MODEL GWF              PACKAGE GWF             CONNECTED TO MODEL GWF              PACKAGE WEL-1            ON UNIT   1099 AT TIME STEP     99, STRESS PERIOD      2
 UBDSV06 SAVING              DRN IN MODEL GWF              PACKAGE GWF             CONNECTED TO MODEL GWF              PACKAGE DRN-0            ON UNIT   1099 AT TIME STEP     99, STRESS PERIOD      2
 UBDSV06 SAVING              API IN MODEL GWF              PACKAGE GWF             CONNECTED TO MODEL GWF              PACKAGE MAR              ON UNIT   1099 AT TIME STEP     99, STRESS PERIOD      2
 UBDSV06 SAVING              CHD IN MODEL GWF              PACKAGE GWF             CONNECTED TO MODEL GWF              PACKAGE CHD_0            ON UNIT   1099 AT TIME STEP     99, STRESS PERIOD      2

    CALCULATED INTERCELL FLOW FOR PERIOD 2 STEP 99
(1,1,1): (1,1,2) 8.441702E-02 (1,2,1) 5.851245E-02
(1,1,2): (1,1,1) -8.441702E-02 (1,1,3) 0.156285 (1,2,2) 9.076945E-02
(1,1,3): (1,1,2) -0.156285 (1,1,4) 0.193484 (1,2,3) 0.159441
(1,1,4): (1,1,3) -0.193484 (1,1,5) 0.167356 (1,2,4) 0.261290
(1,1,5): (1,1,4) -0.167356 (1,1,6) 6.961315E-02 (1,2,5) 0.364290
(1,1,6): (1,1,5) -6.961315E-02 (1,1,7) -5.387907E-02 (1,2,6) 0.404789
(1,1,7): (1,1,6) 5.387907E-02 (1,1,8) -0.144242 (1,2,7) 0.366696
(1,1,8): (1,1,7) 0.144242 (1,1,9) -0.155172 (1,2,8) 0.267812
(1,1,9): (1,1,8) 0.155172 (1,1,10) -9.574182E-02 (1,2,9) 0.174439
(1,1,10): (1,1,9) 9.574182E-02 (1,2,10) 0.123038
(1,2,1): (1,1,1) -5.851245E-02 (1,2,2) 0.116682 (1,3,1) 8.123421E-02
(1,2,2): (1,1,2) -9.076945E-02 (1,2,1) -0.116682 (1,2,3) 0.225001 (1,3,2) 0.141258
(1,2,3): (1,1,3) -0.159441 (1,2,2) -0.225001 (1,2,4) 0.295368 (1,3,3) 0.281803
(1,2,4): (1,1,4) -0.261290 (1,2,3) -0.295368 (1,2,5) 0.270262 (1,3,4) 0.518248
(1,2,5): (1,1,5) -0.364290 (1,2,4) -0.270262 (1,2,6) 0.109997 (1,3,5) 0.788793
(1,2,6): (1,1,6) -0.404789 (1,2,5) -0.109997 (1,2,7) -9.185728E-02 (1,3,6) 0.886109
(1,2,7): (1,1,7) -0.366696 (1,2,6) 9.185728E-02 (1,2,8) -0.243006 (1,3,7) 0.791619
(1,2,8): (1,1,8) -0.267812 (1,2,7) 0.243006 (1,2,9) -0.248528 (1,3,8) 0.526250
(1,2,9): (1,1,9) -0.174439 (1,2,8) 0.248528 (1,2,10) -0.147129 (1,3,9) 0.301723
(1,2,10): (1,1,10) -0.123038 (1,2,9) 0.147129 (1,3,10) 0.188896
(1,3,1): (1,2,1) -8.123421E-02 (1,3,2) 0.176727 (1,4,1) 2.537690E-02
(1,3,2): (1,2,2) -0.141258 (1,3,1) -0.176727 (1,3,3) 0.365661 (1,4,2) 9.081328E-02
(1,3,3): (1,2,3) -0.281803 (1,3,2) -0.365661 (1,3,4) 0.531843 (1,4,3) 0.286207
(1,3,4): (1,2,4) -0.518248 (1,3,3) -0.531843 (1,3,5) 0.540168 (1,4,4) 0.719502
(1,3,5): (1,2,5) -0.788793 (1,3,4) -0.540168 (1,3,6) 0.206690 (1,4,5) 1.36557
(1,3,6): (1,2,6) -0.886109 (1,3,5) -0.206690 (1,3,7) -0.185724 (1,4,6) 1.53771
(1,3,7): (1,2,7) -0.791619 (1,3,6) 0.185724 (1,3,8) -0.507659 (1,4,7) 1.36512
(1,3,8): (1,2,8) -0.526250 (1,3,7) 0.507659 (1,3,9) -0.472939 (1,4,8) 0.719131
(1,3,9): (1,2,9) -0.301723 (1,3,8) 0.472939 (1,3,10) -0.259910 (1,4,9) 0.289705
(1,3,10): (1,2,10) -0.188896 (1,3,9) 0.259910 (1,4,10) 0.113322
(1,4,1): (1,3,1) -2.537690E-02 (1,4,2) 0.242261 (1,5,1) -0.144428
(1,4,2): (1,3,2) -9.081328E-02 (1,4,1) -0.242261 (1,4,3) 0.561578 (1,5,2) -0.143035
(1,4,3): (1,3,3) -0.286207 (1,4,2) -0.561578 (1,4,4) 0.966155 (1,5,3) -5.940945E-03
(1,4,4): (1,3,4) -0.719502 (1,4,3) -0.966155 (1,4,5) 1.18516 (1,5,4) 0.650643
(1,4,5): (1,3,5) -1.36557 (1,4,4) -1.18516 (1,4,6) 0.377023 (1,5,5) 2.36005
(1,4,6): (1,3,6) -1.53771 (1,4,5) -0.377023 (1,4,7) -0.356466 (1,5,6) 2.47491
(1,4,7): (1,3,7) -1.36512 (1,4,6) 0.356466 (1,4,8) -1.15238 (1,5,7) 2.35255
(1,4,8): (1,3,8) -0.719131 (1,4,7) 1.15238 (1,4,9) -0.903116 (1,5,8) 0.630525
(1,4,9): (1,3,9) -0.289705 (1,4,8) 0.903116 (1,4,10) -0.436546 (1,5,9) -4.749145E-02
(1,4,10): (1,3,10) -0.113322 (1,4,9) 0.436546 (1,5,10) -0.212134
(1,5,1): (1,4,1) 0.144428 (1,5,2) 0.243655 (1,6,1) -0.399277
(1,5,2): (1,4,2) 0.143035 (1,5,1) -0.243655 (1,5,3) 0.699420 (1,6,2) -0.605022
(1,5,3): (1,4,3) 5.940945E-03 (1,5,2) -0.699420 (1,5,4) 1.62881 (1,6,3) -0.923381
(1,5,4): (1,4,4) -0.650643 (1,5,3) -1.62881 (1,5,5) 2.90281 (1,6,4) -0.573684
(1,5,5): (1,4,5) -2.36005 (1,5,4) -2.90281 (1,5,6) 0.490040 (1,6,5) 4.86796
(1,5,6): (1,4,6) -2.47491 (1,5,5) -0.490040 (1,5,7) -0.476833 (1,6,6) 3.56007
(1,5,7): (1,4,7) -2.35255 (1,5,6) 0.476833 (1,5,8) -2.88251 (1,6,7) 4.85426
(1,5,8): (1,4,8) -0.630525 (1,5,7) 2.88251 (1,5,9) -1.58725 (1,6,8) -0.616835
(1,5,9): (1,4,9) 4.749145E-02 (1,5,8) 1.58725 (1,5,10) -0.601815 (1,6,9) -1.02657
(1,5,10): (1,4,10) 0.212134 (1,5,9) 0.601815 (1,6,10) -0.828482
(1,6,1): (1,5,1) 0.399277 (1,6,2) 3.864244E-02 (1,7,1) -0.553521
(1,6,2): (1,5,2) 0.605022 (1,6,1) -3.864244E-02 (1,6,3) 0.381747 (1,7,2) -1.06978
(1,6,3): (1,5,3) 0.923381 (1,6,2) -0.381747 (1,6,4) 1.98215 (1,7,3) -2.63986
(1,6,4): (1,5,4) 0.573684 (1,6,3) -1.98215 (1,6,5) 8.50616 (1,7,4) -7.17441
(1,6,5): (1,5,5) -4.86796 (1,6,4) -8.50616 (1,6,6) -0.776537 (1,7,5) -21.7640
(1,6,6): (1,5,6) -3.56007 (1,6,5) 0.776537 (1,6,7) 0.776535 (1,7,6) -33.8846
(1,6,7): (1,5,7) -4.85426 (1,6,6) -0.776535 (1,6,8) -8.51691 (1,7,7) -21.7841
(1,6,8): (1,5,8) 0.616835 (1,6,7) 8.51691 (1,6,9) -2.00089 (1,7,8) -7.22551
(1,6,9): (1,5,9) 1.02657 (1,6,8) 2.00089 (1,6,10) -0.404524 (1,7,9) -2.77222
(1,6,10): (1,5,10) 0.828482 (1,6,9) 0.404524 (1,7,10) -1.40516
(1,7,1): (1,6,1) 0.553521 (1,7,2) -0.474567 (1,8,1) -0.286541
(1,7,2): (1,6,2) 1.06978 (1,7,1) 0.474567 (1,7,3) -1.16714 (1,8,2) -0.604018
(1,7,3): (1,6,3) 2.63986 (1,7,2) 1.16714 (1,7,4) -2.38964 (1,8,3) -1.65916
(1,7,4): (1,6,4) 7.17441 (1,7,3) 2.38964 (1,7,5) -4.79803 (1,8,4) -4.98591
(1,7,5): (1,6,5) 21.7640 (1,7,4) 4.79803 (1,7,6) -10.7569 (1,8,5) -15.9512
(1,7,6): (1,6,6) 33.8846 (1,7,5) 10.7569 (1,7,7) 10.7382 (1,8,6) -55.4541
(1,7,7): (1,6,7) 21.7841 (1,7,6) -10.7382 (1,7,8) 4.75485 (1,8,7) -15.9581
(1,7,8): (1,6,8) 7.22551 (1,7,7) -4.75485 (1,7,9) 2.28760 (1,8,8) -5.00933
(1,7,9): (1,6,9) 2.77222 (1,7,8) -2.28760 (1,7,10) 0.939601 (1,8,9) -1.72451
(1,7,10): (1,6,10) 1.40516 (1,7,9) -0.939601 (1,8,10) -0.781526
(1,8,1): (1,7,1) 0.286541 (1,8,2) -0.792655 (1,9,1) 0.256668
(1,8,2): (1,7,2) 0.604018 (1,8,1) 0.792655 (1,8,3) -2.22848 (1,9,2) 0.551234
(1,8,3): (1,7,3) 1.65916 (1,8,2) 2.22848 (1,8,4) -5.74283 (1,9,3) 1.53505
(1,8,4): (1,7,4) 4.98591 (1,8,3) 5.74283 (1,8,5) -15.7388 (1,9,4) 4.67714
(1,8,5): (1,7,5) 15.9512 (1,8,4) 15.7388 (1,8,6) -47.1995 (1,9,5) 15.2331
(1,8,6): (1,7,6) 55.4541 (1,8,5) 47.1995 (1,8,7) 47.1590 (1,9,6) 54.2568
(1,8,7): (1,7,7) 15.9581 (1,8,6) -47.1590 (1,8,8) 15.6704 (1,9,7) 15.2378
(1,8,8): (1,7,8) 5.00933 (1,8,7) -15.6704 (1,8,9) 5.59259 (1,9,8) 4.69695
(1,8,9): (1,7,9) 1.72451 (1,8,8) -5.59259 (1,8,10) 1.88415 (1,9,9) 1.59337
(1,8,10): (1,7,10) 0.781526 (1,8,9) -1.88415 (1,9,10) 0.713365
(1,9,1): (1,8,1) -0.256668 (1,9,2) -0.497364 (1,10,1) 0.532340
(1,9,2): (1,8,2) -0.551234 (1,9,1) 0.497364 (1,9,3) -1.23760 (1,10,2) 1.03280
(1,9,3): (1,8,3) -1.53505 (1,9,2) 1.23760 (1,9,4) -2.56534 (1,10,3) 2.54341
(1,9,4): (1,8,4) -4.67714 (1,9,3) 2.56534 (1,9,5) -5.12572 (1,10,4) 6.85116
(1,9,5): (1,8,5) -15.2331 (1,9,4) 5.12572 (1,9,6) -10.8002 (1,10,5) 20.4653
(1,9,6): (1,8,6) -54.2568 (1,9,5) 10.8002 (1,9,7) 10.7796 (1,10,6) 32.2518
(1,9,7): (1,8,7) -15.2378 (1,9,6) -10.7796 (1,9,8) 5.08067 (1,10,7) 20.4812
(1,9,8): (1,8,8) -4.69695 (1,9,7) -5.08067 (1,9,9) 2.45954 (1,10,8) 6.89918
(1,9,9): (1,8,9) -1.59337 (1,9,8) -2.45954 (1,9,10) 1.00148 (1,10,9) 2.67053
(1,9,10): (1,8,10) -0.713365 (1,9,9) -1.00148 (1,10,10) 1.35745
(1,10,1): (1,9,1) -0.532340 (1,10,2) 4.242996E-04 (1,11,1) 0.394307
(1,10,2): (1,9,2) -1.03280 (1,10,1) -4.242996E-04 (1,10,3) 0.254249 (1,11,2) 0.607777
(1,10,3): (1,9,3) -2.54341 (1,10,2) -0.254249 (1,10,4) 1.59454 (1,11,3) 0.965067
(1,10,4): (1,9,4) -6.85116 (1,10,3) -1.59454 (1,10,5) 7.30675 (1,11,4) 0.791676
(1,10,5): (1,9,5) -20.4653 (1,10,4) -7.30675 (1,10,6) -1.01060 (1,11,5) -3.85335
(1,10,6): (1,9,6) -32.2518 (1,10,5) 1.01060 (1,10,7) 1.00540 (1,11,6) -2.44010
(1,10,7): (1,9,7) -20.4812 (1,10,6) -1.00540 (1,10,8) -7.31844 (1,11,7) -3.83802
(1,10,8): (1,9,8) -6.89918 (1,10,7) 7.31844 (1,10,9) -1.61903 (1,11,8) 0.833828
(1,10,9): (1,9,9) -2.67053 (1,10,8) 1.61903 (1,10,10) -0.290845 (1,11,9) 1.06653
(1,10,10): (1,9,10) -1.35745 (1,10,9) 0.290845 (1,11,10) 0.830429
(1,11,1): (1,10,1) -0.394307 (1,11,2) 0.213063 (1,12,1) 0.149365
(1,11,2): (1,10,2) -0.607777 (1,11,1) -0.213063 (1,11,3) 0.610311 (1,12,2) 0.160273
(1,11,3): (1,10,3) -0.965067 (1,11,2) -0.610311 (1,11,4) 1.42003 (1,12,3) 6.554159E-02
(1,11,4): (1,10,4) -0.791676 (1,11,3) -1.42003 (1,11,5) 2.52988 (1,12,4) -0.472934
(1,11,5): (1,10,5) 3.85335 (1,11,4) -2.52988 (1,11,6) 0.370222 (1,12,5) -1.93217
(1,11,6): (1,10,6) 2.44010 (1,11,5) -0.370222 (1,11,7) -0.360509 (1,12,6) -1.97364
(1,11,7): (1,10,7) 3.83802 (1,11,6) 0.360509 (1,11,8) -2.51345 (1,12,7) -1.92442
(1,11,8): (1,10,8) -0.833828 (1,11,7) 2.51345 (1,11,9) -1.38502 (1,12,8) -0.452762
(1,11,9): (1,10,9) -1.06653 (1,11,8) 1.38502 (1,11,10) -0.525725 (1,12,9) 0.107851
(1,11,10): (1,10,10) -0.830429 (1,11,9) 0.525725 (1,12,10) 0.233436
(1,12,1): (1,11,1) -0.149365 (1,12,2) 0.223977 (1,13,1) -1.738538E-02
(1,12,2): (1,11,2) -0.160273 (1,12,1) -0.223977 (1,12,3) 0.515160 (1,13,2) -7.465326E-02
(1,12,3): (1,11,3) -6.554159E-02 (1,12,2) -0.515160 (1,12,4) 0.876732 (1,13,3) -0.246120
(1,12,4): (1,11,4) 0.472934 (1,12,3) -0.876732 (1,12,5) 1.06277 (1,13,4) -0.626486
(1,12,5): (1,11,5) 1.93217 (1,12,4) -1.06277 (1,12,6) 0.329251 (1,13,5) -1.19155
(1,12,6): (1,11,6) 1.97364 (1,12,5) -0.329251 (1,12,7) -0.311911 (1,13,6) -1.33321
(1,12,7): (1,11,7) 1.92442 (1,12,6) 0.311911 (1,12,8) -1.03397 (1,13,7) -1.19076
(1,12,8): (1,11,8) 0.452762 (1,12,7) 1.03397 (1,12,9) -0.819537 (1,13,8) -0.625357
(1,12,9): (1,11,9) -0.107851 (1,12,8) 0.819537 (1,12,10) -0.399779 (1,13,9) -0.247863
(1,12,10): (1,11,10) -0.233436 (1,12,9) 0.399779 (1,13,10) -9.258736E-02
(1,13,1): (1,12,1) 1.738538E-02 (1,13,2) 0.166624 (1,14,1) -7.405275E-02
(1,13,2): (1,12,2) 7.465326E-02 (1,13,1) -0.166624 (1,13,3) 0.343244 (1,14,2) -0.130076
(1,13,3): (1,12,3) 0.246120 (1,13,2) -0.343244 (1,13,4) 0.495456 (1,14,3) -0.260162
(1,13,4): (1,12,4) 0.626486 (1,13,3) -0.495456 (1,13,5) 0.498389 (1,14,4) -0.476669
(1,13,5): (1,12,5) 1.19155 (1,13,4) -0.498389 (1,13,6) 0.188886 (1,14,5) -0.721600
(1,13,6): (1,12,6) 1.33321 (1,13,5) -0.188886 (1,13,7) -0.170785 (1,14,6) -0.808305
(1,13,7): (1,12,7) 1.19076 (1,13,6) 0.170785 (1,13,8) -0.469396 (1,14,7) -0.724023
(1,13,8): (1,12,8) 0.625357 (1,13,7) 0.469396 (1,13,9) -0.441343 (1,14,8) -0.483768
(1,13,9): (1,12,9) 0.247863 (1,13,8) 0.441343 (1,13,10) -0.244274 (1,14,9) -0.278348
(1,13,10): (1,12,10) 9.258736E-02 (1,13,9) 0.244274 (1,14,10) -0.174258
(1,14,1): (1,13,1) 7.405275E-02 (1,14,2) 0.110581 (1,15,1) -5.433852E-02
(1,14,2): (1,13,2) 0.130076 (1,14,1) -0.110581 (1,14,3) 0.213052 (1,15,2) -8.508104E-02
(1,14,3): (1,13,3) 0.260162 (1,14,2) -0.213052 (1,14,4) 0.278910 (1,15,3) -0.150112
(1,14,4): (1,13,4) 0.476669 (1,14,3) -0.278910 (1,14,5) 0.253980 (1,15,4) -0.245697
(1,14,5): (1,13,5) 0.721600 (1,14,4) -0.253980 (1,14,6) 0.102689 (1,15,5) -0.341434
(1,14,6): (1,13,6) 0.808305 (1,14,5) -0.102689 (1,14,7) -8.701166E-02 (1,15,6) -0.378798
(1,14,7): (1,13,7) 0.724023 (1,14,6) 8.701166E-02 (1,14,8) -0.229725 (1,15,7) -0.343576
(1,14,8): (1,13,8) 0.483768 (1,14,7) 0.229725 (1,14,9) -0.236007 (1,15,8) -0.251636
(1,14,9): (1,13,9) 0.278348 (1,14,8) 0.236007 (1,14,10) -0.140219 (1,15,9) -0.164063
(1,14,10): (1,13,10) 0.174258 (1,14,9) 0.140219 (1,15,10) -0.115514
(1,15,1): (1,14,1) 5.433852E-02 (1,15,2) 7.983050E-02
(1,15,2): (1,14,2) 8.508104E-02 (1,15,1) -7.983050E-02 (1,15,3) 0.147980
(1,15,3): (1,14,3) 0.150112 (1,15,2) -0.147980 (1,15,4) 0.183294
(1,15,4): (1,14,4) 0.245697 (1,15,3) -0.183294 (1,15,5) 0.158325
(1,15,5): (1,14,5) 0.341434 (1,15,4) -0.158325 (1,15,6) 6.542364E-02
(1,15,6): (1,14,6) 0.378798 (1,15,5) -6.542364E-02 (1,15,7) -5.188836E-02
(1,15,7): (1,14,7) 0.343576 (1,15,6) 5.188836E-02 (1,15,8) -0.137887
(1,15,8): (1,14,8) 0.251636 (1,15,7) 0.137887 (1,15,9) -0.148448
(1,15,9): (1,14,9) 0.164063 (1,15,8) 0.148448 (1,15,10) -9.168101E-02
(1,15,10): (1,14,10) 0.115514 (1,15,9) 9.168101E-02

 WEL PACKAGE (WEL-1) FLOW RATES   PERIOD      2   STEP       99
 ----------------------------------------------------------------------------------------
   NUMBER   CELLID                    RATE       NAME                                    
 ----------------------------------------------------------------------------------------
     1      (1,8,6)              -204.11318      WEL                                     
 ----------------------------------------------------------------------------------------




 DRN PACKAGE (DRN-0) FLOW RATES   PERIOD      2   STEP       99
 ----------------------------------------------------------------------------------------
   NUMBER   CELLID                    RATE       NAME                                    
 ----------------------------------------------------------------------------------------
     1      (1,1,1)               0.0000000      SURF                                    
     2      (1,1,2)               0.0000000      SURF                                    
     3      (1,1,3)               0.0000000      SURF                                    
     4      (1,1,4)               0.0000000      SURF                                    
     5      (1,1,5)               0.0000000      SURF                                    
     6      (1,1,6)               0.0000000      SURF                                    
     7      (1,1,7)               0.0000000      SURF                                    
     8      (1,1,8)               0.0000000      SURF                                    
     9      (1,1,9)               0.0000000      SURF                                    
     10     (1,1,10)              0.0000000      SURF                                    
     11     (1,2,1)               0.0000000      SURF                                    
     12     (1,2,2)               0.0000000      SURF                                    
     13     (1,2,3)               0.0000000      SURF                                    
     14     (1,2,4)               0.0000000      SURF                                    
     15     (1,2,5)               0.0000000      SURF                                    
     16     (1,2,6)               0.0000000      SURF                                    
     17     (1,2,7)               0.0000000      SURF                                    
     18     (1,2,8)               0.0000000      SURF                                    
     19     (1,2,9)               0.0000000      SURF                                    
     20     (1,2,10)              0.0000000      SURF                                    
     21     (1,3,1)               0.0000000      SURF                                    
     22     (1,3,2)               0.0000000      SURF                                    
     23     (1,3,3)               0.0000000      SURF                                    
     24     (1,3,4)               0.0000000      SURF                                    
     25     (1,3,5)               0.0000000      SURF                                    
     26     (1,3,6)               0.0000000      SURF                                    
     27     (1,3,7)               0.0000000      SURF                                    
     28     (1,3,8)               0.0000000      SURF                                    
     29     (1,3,9)               0.0000000      SURF                                    
     30     (1,3,10)              0.0000000      SURF                                    
     31     (1,4,1)               0.0000000      SURF                                    
     32     (1,4,2)               0.0000000      SURF                                    
     33     (1,4,3)               0.0000000      SURF                                    
     34     (1,4,4)               0.0000000      SURF                                    
     35     (1,4,5)               0.0000000      SURF                                    
     36     (1,4,6)               0.0000000      SURF                                    
     37     (1,4,7)               0.0000000      SURF                                    
     38     (1,4,8)               0.0000000      SURF                                    
     39     (1,4,9)               0.0000000      SURF                                    
     40     (1,4,10)              0.0000000      SURF                                    
     41     (1,5,1)               0.0000000      SURF                                    
     42     (1,5,2)               0.0000000      SURF                                    
     43     (1,5,3)               0.0000000      SURF                                    
     44     (1,5,4)               0.0000000      SURF                                    
     45     (1,5,5)               0.0000000      SURF                                    
     46     (1,5,6)               0.0000000      SURF                                    
     47     (1,5,7)               0.0000000      SURF                                    
     48     (1,5,8)               0.0000000      SURF                                    
     49     (1,5,9)               0.0000000      SURF                                    
     50     (1,5,10)              0.0000000      SURF                                    
     51     (1,6,1)               0.0000000      SURF                                    
     52     (1,6,2)               0.0000000      SURF                                    
     53     (1,6,3)               0.0000000      SURF                                    
     54     (1,6,4)               0.0000000      SURF                                    
     55     (1,6,5)              -1.71310523E-02 SURF                                    
     56     (1,6,6)               0.0000000      SURF                                    
     57     (1,6,7)              -3.13550117E-07 SURF                                    
     58     (1,6,8)               0.0000000      SURF                                    
     59     (1,6,9)               0.0000000      SURF                                    
     60     (1,6,10)              0.0000000      SURF                                    
     61     (1,7,1)               0.0000000      SURF                                    
     62     (1,7,2)               0.0000000      SURF                                    
     63     (1,7,3)               0.0000000      SURF                                    
     64     (1,7,4)               0.0000000      SURF                                    
     65     (1,7,5)               0.0000000      SURF                                    
     66     (1,7,6)               0.0000000      SURF                                    
     67     (1,7,7)               0.0000000      SURF                                    
     68     (1,7,8)               0.0000000      SURF                                    
     69     (1,7,9)               0.0000000      SURF                                    
     70     (1,7,10)              0.0000000      SURF                                    
     71     (1,8,1)               0.0000000      SURF                                    
     72     (1,8,2)               0.0000000      SURF                                    
     73     (1,8,3)               0.0000000      SURF                                    
     74     (1,8,4)               0.0000000      SURF                                    
     75     (1,8,5)               0.0000000      SURF                                    
     76     (1,8,6)               0.0000000      SURF                                    
     77     (1,8,7)               0.0000000      SURF                                    
     78     (1,8,8)               0.0000000      SURF                                    
     79     (1,8,9)               0.0000000      SURF                                    
     80     (1,8,10)              0.0000000      SURF                                    
     81     (1,9,1)               0.0000000      SURF                                    
     82     (1,9,2)               0.0000000      SURF                                    
     83     (1,9,3)               0.0000000      SURF                                    
     84     (1,9,4)               0.0000000      SURF                                    
     85     (1,9,5)               0.0000000      SURF                                    
     86     (1,9,6)               0.0000000      SURF                                    
     87     (1,9,7)               0.0000000      SURF                                    
     88     (1,9,8)               0.0000000      SURF                                    
     89     (1,9,9)               0.0000000      SURF                                    
     90     (1,9,10)              0.0000000      SURF                                    
     91     (1,10,1)              0.0000000      SURF                                    
     92     (1,10,2)              0.0000000      SURF                                    
     93     (1,10,3)              0.0000000      SURF                                    
     94     (1,10,4)              0.0000000      SURF                                    
     95     (1,10,5)              0.0000000      SURF                                    
     96     (1,10,6)              0.0000000      SURF                                    
     97     (1,10,7)              0.0000000      SURF                                    
     98     (1,10,8)              0.0000000      SURF                                    
     99     (1,10,9)              0.0000000      SURF                                    
    100     (1,10,10)             0.0000000      SURF                                    
    101     (1,11,1)              0.0000000      SURF                                    
    102     (1,11,2)              0.0000000      SURF                                    
    103     (1,11,3)              0.0000000      SURF                                    
    104     (1,11,4)              0.0000000      SURF                                    
    105     (1,11,5)              0.0000000      SURF                                    
    106     (1,11,6)              0.0000000      SURF                                    
    107     (1,11,7)              0.0000000      SURF                                    
    108     (1,11,8)              0.0000000      SURF                                    
    109     (1,11,9)              0.0000000      SURF                                    
    110     (1,11,10)             0.0000000      SURF                                    
    111     (1,12,1)              0.0000000      SURF                                    
    112     (1,12,2)              0.0000000      SURF                                    
    113     (1,12,3)              0.0000000      SURF                                    
    114     (1,12,4)              0.0000000      SURF                                    
    115     (1,12,5)              0.0000000      SURF                                    
    116     (1,12,6)              0.0000000      SURF                                    
    117     (1,12,7)              0.0000000      SURF                                    
    118     (1,12,8)              0.0000000      SURF                                    
    119     (1,12,9)              0.0000000      SURF                                    
    120     (1,12,10)             0.0000000      SURF                                    
    121     (1,13,1)              0.0000000      SURF                                    
    122     (1,13,2)              0.0000000      SURF                                    
    123     (1,13,3)              0.0000000      SURF                                    
    124     (1,13,4)              0.0000000      SURF                                    
    125     (1,13,5)              0.0000000      SURF                                    
    126     (1,13,6)              0.0000000      SURF                                    
    127     (1,13,7)              0.0000000      SURF                                    
    128     (1,13,8)              0.0000000      SURF                                    
    129     (1,13,9)              0.0000000      SURF                                    
    130     (1,13,10)             0.0000000      SURF                                    
    131     (1,14,1)              0.0000000      SURF                                    
    132     (1,14,2)              0.0000000      SURF                                    
    133     (1,14,3)              0.0000000      SURF                                    
    134     (1,14,4)              0.0000000      SURF                                    
    135     (1,14,5)              0.0000000      SURF                                    
    136     (1,14,6)              0.0000000      SURF                                    
    137     (1,14,7)              0.0000000      SURF                                    
    138     (1,14,8)              0.0000000      SURF                                    
    139     (1,14,9)              0.0000000      SURF                                    
    140     (1,14,10)             0.0000000      SURF                                    
    141     (1,15,1)              0.0000000      SURF                                    
    142     (1,15,2)              0.0000000      SURF                                    
    143     (1,15,3)              0.0000000      SURF                                    
    144     (1,15,4)              0.0000000      SURF                                    
    145     (1,15,5)              0.0000000      SURF                                    
    146     (1,15,6)              0.0000000      SURF                                    
    147     (1,15,7)              0.0000000      SURF                                    
    148     (1,15,8)              0.0000000      SURF                                    
    149     (1,15,9)              0.0000000      SURF                                    
    150     (1,15,10)             0.0000000      SURF                                    
 ----------------------------------------------------------------------------------------




 API PACKAGE (MAR) FLOW RATES   PERIOD      2   STEP       99
 -----------------------------------------------
   NUMBER   CELLID                    RATE      
 -----------------------------------------------
     1      (1,6,5)               35.931764     
     2      (1,6,6)               35.931764     
     3      (1,6,7)               35.931764     
     4      (1,10,5)              32.105964     
     5      (1,10,6)              32.105964     
     6      (1,10,7)              32.105964     
 -----------------------------------------------



1
  HEAD IN LAYER   1 AT END OF TIME STEP  99 IN STRESS PERIOD    2
  ---------------------------------------------------------------------------

            1           2           3           4           5           6           7           8           9          10
 ........................................................................................................................
   1   2.8714E-02  3.7124E-02  5.2671E-02  7.1881E-02  8.8470E-02  9.5366E-02  9.0029E-02  7.5733E-02  6.0333E-02  5.0816E-02
   2   3.4545E-02  4.6159E-02  6.8506E-02  9.7757E-02  0.1245      0.1353      0.1262      0.1022      7.7642E-02  6.3043E-02
   3   4.2634E-02  6.0201E-02  9.6418E-02  0.1488      0.2018      0.2220      0.2038      0.1541      0.1075      8.1779E-02
   4   4.5160E-02  6.9220E-02  0.1247      0.2192      0.3339      0.3703      0.3359      0.2244      0.1361      9.3007E-02
   5   3.0782E-02  5.5014E-02  0.1241      0.2825      0.5575      0.6037      0.5587      0.2857      0.1314      7.1989E-02
   6  -9.0229E-03 -5.1567E-03  3.2893E-02  0.2267       1.000      0.9294       1.000      0.2257      3.0064E-02 -1.0267E-02
   7  -6.4425E-02 -0.1122     -0.2302     -0.4748     -0.9785      -2.171     -0.9804     -0.4809     -0.2463     -0.1509    
   8  -9.3265E-02 -0.1733     -0.4001     -0.9983      -2.747      -9.254      -2.750      -1.007     -0.4231     -0.2303    
   9  -6.7424E-02 -0.1175     -0.2427     -0.5056      -1.046      -2.252      -1.048     -0.5121     -0.2596     -0.1578    
  10  -1.4115E-02 -1.4072E-02  1.1324E-02  0.1681      0.8421      0.7489      0.8416      0.1666      7.3072E-03 -2.1756E-02
  11   2.5217E-02  4.6425E-02  0.1068      0.2454      0.4867      0.5218      0.4876      0.2479      0.1128      6.0785E-02
  12   4.0094E-02  6.2353E-02  0.1133      0.1993      0.3024      0.3343      0.3041      0.2037      0.1234      8.3934E-02
  13   3.8362E-02  5.4934E-02  8.8955E-02  0.1378      0.1868      0.2053      0.1885      0.1425      9.8941E-02  7.4753E-02
  14   3.0985E-02  4.1997E-02  6.3168E-02  9.0808E-02  0.1159      0.1261      0.1175      9.4758E-02  7.1379E-02  5.7456E-02
  15   2.5568E-02  3.3525E-02  4.8252E-02  6.6460E-02  8.2163E-02  8.8648E-02  8.3505E-02  6.9830E-02  5.5089E-02  4.5971E-02

 HEAD WILL BE SAVED ON UNIT 1100 AT END OF TIME STEP   99, STRESS PERIOD    2


  VOLUME BUDGET FOR ENTIRE MODEL AT END OF TIME STEP   99, STRESS PERIOD   2
  ---------------------------------------------------------------------------------------------------

     CUMULATIVE VOLUME      L**3       RATES FOR THIS TIME STEP      L**3/T          PACKAGE NAME    
     ------------------                 ------------------------                     ----------------

           IN:                                      IN:
           ---                                      ---
              STO-SS =          26.2123                STO-SS =       6.9837E-03     STORAGE                          
              STO-SY =       64101.2842                STO-SY =          14.4315     STORAGE                          
                 WEL =           0.0000                   WEL =           0.0000     WEL-1                            
                 DRN =           0.0000                   DRN =           0.0000     DRN-0                            
                 API =      202568.2082                   API =         204.1132     MAR                              
                 CHD =       2.0279E-08                   CHD =           0.0000     CHD_0                            

            TOTAL IN =      266695.7047              TOTAL IN =         218.5517

          OUT:                                     OUT:
          ----                                     ----
              STO-SS =          22.7807                STO-SS =       7.2953E-03     STORAGE                          
              STO-SY =       44534.9495                STO-SY =          14.4141     STORAGE                          
                 WEL =      222137.0144                   WEL =         204.1132     WEL-1                            
                 DRN =           0.9600                   DRN =       1.7131E-02     DRN-0                            
                 API =           0.0000                   API =           0.0000     MAR                              
                 CHD =       2.0705E-08                   CHD =           0.0000     CHD_0                            

           TOTAL OUT =      266695.7047             TOTAL OUT =         218.5517

            IN - OUT =      -7.7829E-07              IN - OUT =       1.9618E-09

 PERCENT DISCREPANCY =          -0.00     PERCENT DISCREPANCY =           0.00




         TIME SUMMARY AT END OF TIME STEP   99 IN STRESS PERIOD    2
                    SECONDS     MINUTES      HOURS       DAYS        YEARS
                    -----------------------------------------------------------
   TIME STEP LENGTH 8.64000E+05  14400.      240.00      10.000     2.73785E-02
 STRESS PERIOD TIME 8.55360E+07 1.42560E+06  23760.      990.00      2.7105    
         TOTAL TIME 8.56224E+07 1.42704E+06  23784.      991.00      2.7132    


end timestep


start timestep kper="2" kstp="100" mode="normal"

 UBDSV1 SAVING           STO-SS ON UNIT   1099 AT TIME STEP    100, STRESS PERIOD      2
 UBDSV1 SAVING           STO-SY ON UNIT   1099 AT TIME STEP    100, STRESS PERIOD      2
 UBDSV1 SAVING     FLOW-JA-FACE ON UNIT   1099 AT TIME STEP    100, STRESS PERIOD      2
 UBDSV06 SAVING       DATA-SPDIS IN MODEL GWF              PACKAGE NPF             CONNECTED TO MODEL GWF              PACKAGE NPF              ON UNIT   1099 AT TIME STEP    100, STRESS PERIOD      2
 UBDSV06 SAVING              WEL IN MODEL GWF              PACKAGE GWF             CONNECTED TO MODEL GWF              PACKAGE WEL-1            ON UNIT   1099 AT TIME STEP    100, STRESS PERIOD      2
 UBDSV06 SAVING              DRN IN MODEL GWF              PACKAGE GWF             CONNECTED TO MODEL GWF              PACKAGE DRN-0            ON UNIT   1099 AT TIME STEP    100, STRESS PERIOD      2
 UBDSV06 SAVING              API IN MODEL GWF              PACKAGE GWF             CONNECTED TO MODEL GWF              PACKAGE MAR              ON UNIT   1099 AT TIME STEP    100, STRESS PERIOD      2
 UBDSV06 SAVING              CHD IN MODEL GWF              PACKAGE GWF             CONNECTED TO MODEL GWF              PACKAGE CHD_0            ON UNIT   1099 AT TIME STEP    100, STRESS PERIOD      2

    CALCULATED INTERCELL FLOW FOR PERIOD 2 STEP 100
(1,1,1): (1,1,2) 8.539858E-02 (1,2,1) 5.831082E-02
(1,1,2): (1,1,1) -8.539858E-02 (1,1,3) 0.157984 (1,2,2) 9.055391E-02
(1,1,3): (1,1,2) -0.157984 (1,1,4) 0.195418 (1,2,3) 0.159226
(1,1,4): (1,1,3) -0.195418 (1,1,5) 0.168940 (1,2,4) 0.261115
(1,1,5): (1,1,4) -0.168940 (1,1,6) 7.036057E-02 (1,2,5) 0.364178
(1,1,6): (1,1,5) -7.036057E-02 (1,1,7) -5.412583E-02 (1,2,6) 0.404707
(1,1,7): (1,1,6) 5.412583E-02 (1,1,8) -0.145219 (1,2,7) 0.366571
(1,1,8): (1,1,7) 0.145219 (1,1,9) -0.156325 (1,2,8) 0.267603
(1,1,9): (1,1,8) 0.156325 (1,1,10) -9.649566E-02 (1,2,9) 0.174156
(1,1,10): (1,1,9) 9.649566E-02 (1,2,10) 0.122719
(1,2,1): (1,1,1) -5.831082E-02 (1,2,2) 0.117650 (1,3,1) 8.026828E-02
(1,2,2): (1,1,2) -9.055391E-02 (1,2,1) -0.117650 (1,2,3) 0.226702 (1,3,2) 0.140206
(1,2,3): (1,1,3) -0.159226 (1,2,2) -0.226702 (1,2,4) 0.297344 (1,3,3) 0.280670
(1,2,4): (1,1,4) -0.261115 (1,2,3) -0.297344 (1,2,5) 0.271910 (1,3,4) 0.517128
(1,2,5): (1,1,5) -0.364178 (1,2,4) -0.271910 (1,2,6) 0.110774 (1,3,5) 0.787770
(1,2,6): (1,1,6) -0.404707 (1,2,5) -0.110774 (1,2,7) -9.214674E-02 (1,3,6) 0.885132
(1,2,7): (1,1,7) -0.366571 (1,2,6) 9.214674E-02 (1,2,8) -0.244069 (1,3,7) 0.790531
(1,2,8): (1,1,8) -0.267603 (1,2,7) 0.244069 (1,2,9) -0.249755 (1,3,8) 0.524974
(1,2,9): (1,1,9) -0.174156 (1,2,8) 0.249755 (1,2,10) -0.147920 (1,3,9) 0.300306
(1,2,10): (1,1,10) -0.122719 (1,2,9) 0.147920 (1,3,10) 0.187419
(1,3,1): (1,2,1) -8.026828E-02 (1,3,2) 0.177611 (1,4,1) 2.292370E-02
(1,3,2): (1,2,2) -0.140206 (1,3,1) -0.177611 (1,3,3) 0.367284 (1,4,2) 8.813397E-02
(1,3,3): (1,2,3) -0.280670 (1,3,2) -0.367284 (1,3,4) 0.533840 (1,4,3) 0.283275
(1,3,4): (1,2,4) -0.517128 (1,3,3) -0.533840 (1,3,5) 0.541919 (1,4,4) 0.716518
(1,3,5): (1,2,5) -0.787770 (1,3,4) -0.541919 (1,3,6) 0.207515 (1,4,5) 1.36274
(1,3,6): (1,2,6) -0.885132 (1,3,5) -0.207515 (1,3,7) -0.186124 (1,4,6) 1.53497
(1,3,7): (1,2,7) -0.790531 (1,3,6) 0.186124 (1,3,8) -0.508915 (1,4,7) 1.36213
(1,3,8): (1,2,8) -0.524974 (1,3,7) 0.508915 (1,3,9) -0.474314 (1,4,8) 0.715760
(1,3,9): (1,2,9) -0.300306 (1,3,8) 0.474314 (1,3,10) -0.260763 (1,4,9) 0.286086
(1,3,10): (1,2,10) -0.187419 (1,3,9) 0.260763 (1,4,10) 0.109619
(1,4,1): (1,3,1) -2.292370E-02 (1,4,2) 0.242920 (1,5,1) -0.148615
(1,4,2): (1,3,2) -8.813397E-02 (1,4,1) -0.242920 (1,4,3) 0.562957 (1,5,2) -0.147619
(1,4,3): (1,3,3) -0.283275 (1,4,2) -0.562957 (1,4,4) 0.968120 (1,5,3) -1.096537E-02
(1,4,4): (1,3,4) -0.716518 (1,4,3) -0.968120 (1,4,5) 1.18709 (1,5,4) 0.645564
(1,4,5): (1,3,5) -1.36274 (1,4,4) -1.18709 (1,4,6) 0.377943 (1,5,5) 2.35540
(1,4,6): (1,3,6) -1.53497 (1,4,5) -0.377943 (1,4,7) -0.357118 (1,5,6) 2.47057
(1,4,7): (1,3,7) -1.36213 (1,4,6) 0.357118 (1,4,8) -1.15405 (1,5,7) 2.34768
(1,4,8): (1,3,8) -0.715760 (1,4,7) 1.15405 (1,4,9) -0.904761 (1,5,8) 0.624816
(1,4,9): (1,3,9) -0.286086 (1,4,8) 0.904761 (1,4,10) -0.437489 (1,5,9) -5.365770E-02
(1,4,10): (1,3,10) -0.109619 (1,4,9) 0.437489 (1,5,10) -0.218422
(1,5,1): (1,4,1) 0.148615 (1,5,2) 0.243917 (1,6,1) -0.404452
(1,5,2): (1,4,2) 0.147619 (1,5,1) -0.243917 (1,5,3) 0.700351 (1,6,2) -0.610737
(1,5,3): (1,4,3) 1.096537E-02 (1,5,2) -0.700351 (1,5,4) 1.63077 (1,6,3) -0.929749
(1,5,4): (1,4,4) -0.645564 (1,5,3) -1.63077 (1,5,5) 2.90528 (1,6,4) -0.580065
(1,5,5): (1,4,5) -2.35540 (1,5,4) -2.90528 (1,5,6) 0.491269 (1,6,5) 4.86283
(1,5,6): (1,4,6) -2.47057 (1,5,5) -0.491269 (1,5,7) -0.478015 (1,6,6) 3.55595
(1,5,7): (1,4,7) -2.34768 (1,5,6) 0.478015 (1,5,8) -2.88513 (1,6,7) 4.84908
(1,5,8): (1,4,8) -0.624816 (1,5,7) 2.88513 (1,5,9) -1.58940 (1,6,8) -0.623939
(1,5,9): (1,4,9) 5.365770E-02 (1,5,8) 1.58940 (1,5,10) -0.602873 (1,6,9) -1.03432
(1,5,10): (1,4,10) 0.218422 (1,5,9) 0.602873 (1,6,10) -0.836286
(1,6,1): (1,5,1) 0.404452 (1,6,2) 3.837631E-02 (1,7,1) -0.558021
(1,6,2): (1,5,2) 0.610737 (1,6,1) -3.837631E-02 (1,6,3) 0.382044 (1,7,2) -1.07488
(1,6,3): (1,5,3) 0.929749 (1,6,2) -0.382044 (1,6,4) 1.98407 (1,7,3) -2.64589
(1,6,4): (1,5,4) 0.580065 (1,6,3) -1.98407 (1,6,5) 8.51028 (1,7,4) -7.18131
(1,6,5): (1,5,5) -4.86283 (1,6,4) -8.51028 (1,6,6) -0.774373 (1,7,5) -21.7718
(1,6,6): (1,5,6) -3.55595 (1,6,5) 0.774373 (1,6,7) 0.774371 (1,7,6) -33.8913
(1,6,7): (1,5,7) -4.84908 (1,6,6) -0.774371 (1,6,8) -8.52191 (1,7,7) -21.7925
(1,6,8): (1,5,8) 0.623939 (1,6,7) 8.52191 (1,6,9) -2.00367 (1,7,8) -7.23312
(1,6,9): (1,5,9) 1.03432 (1,6,8) 2.00367 (1,6,10) -0.405650 (1,7,9) -2.77945
(1,6,10): (1,5,10) 0.836286 (1,6,9) 0.405650 (1,7,10) -1.41210
(1,7,1): (1,6,1) 0.558021 (1,7,2) -0.475412 (1,8,1) -0.288572
(1,7,2): (1,6,2) 1.07488 (1,7,1) 0.475412 (1,7,3) -1.16767 (1,8,2) -0.606581
(1,7,3): (1,6,3) 2.64589 (1,7,2) 1.16767 (1,7,4) -2.38826 (1,8,3) -1.66274
(1,7,4): (1,6,4) 7.18131 (1,7,3) 2.38826 (1,7,5) -4.79404 (1,8,4) -4.99066
(1,7,5): (1,6,5) 21.7718 (1,7,4) 4.79404 (1,7,6) -10.7528 (1,8,5) -15.9558
(1,7,6): (1,6,6) 33.8913 (1,7,5) 10.7528 (1,7,7) 10.7336 (1,8,6) -55.4504
(1,7,7): (1,6,7) 21.7925 (1,7,6) -10.7336 (1,7,8) 4.74985 (1,8,7) -15.9627
(1,7,8): (1,6,8) 7.23312 (1,7,7) -4.74985 (1,7,9) 2.28486 (1,8,8) -5.01434
(1,7,9): (1,6,9) 2.77945 (1,7,8) -2.28486 (1,7,10) 0.938656 (1,8,9) -1.72860
(1,7,10): (1,6,10) 1.41210 (1,7,9) -0.938656 (1,8,10) -0.784975
(1,8,1): (1,7,1) 0.288572 (1,8,2) -0.794028 (1,9,1) 0.257972
(1,8,2): (1,7,2) 0.606581 (1,8,1) 0.794028 (1,8,3) -2.23001 (1,9,2) 0.552186
(1,8,3): (1,7,3) 1.66274 (1,8,2) 2.23001 (1,8,4) -5.74246 (1,9,3) 1.53478
(1,8,4): (1,7,4) 4.99066 (1,8,3) 5.74246 (1,8,5) -15.7334 (1,9,4) 4.67363
(1,8,5): (1,7,5) 15.9558 (1,8,4) 15.7334 (1,8,6) -47.1824 (1,9,5) 15.2220
(1,8,6): (1,7,6) 55.4504 (1,8,5) 47.1824 (1,8,7) 47.1408 (1,9,6) 54.2276
(1,8,7): (1,7,7) 15.9627 (1,8,6) -47.1408 (1,8,8) 15.6637 (1,9,7) 15.2268
(1,8,8): (1,7,8) 5.01434 (1,8,7) -15.6637 (1,8,9) 5.59054 (1,9,8) 4.69364
(1,8,9): (1,7,9) 1.72860 (1,8,8) -5.59054 (1,8,10) 1.88381 (1,9,9) 1.59346
(1,8,10): (1,7,10) 0.784975 (1,8,9) -1.88381 (1,9,10) 0.714720
(1,9,1): (1,8,1) -0.257972 (1,9,2) -0.499088 (1,10,1) 0.536421
(1,9,2): (1,8,2) -0.552186 (1,9,1) 0.499088 (1,9,3) -1.24036 (1,10,2) 1.03697
(1,9,3): (1,8,3) -1.53478 (1,9,2) 1.24036 (1,9,4) -2.56812 (1,10,3) 2.54705
(1,9,4): (1,8,4) -4.67363 (1,9,3) 2.56812 (1,9,5) -5.12730 (1,10,4) 6.85187
(1,9,5): (1,8,5) -15.2220 (1,9,4) 5.12730 (1,9,6) -10.7968 (1,10,5) 20.4556
(1,9,6): (1,8,6) -54.2276 (1,9,5) 10.7968 (1,9,7) 10.7755 (1,10,6) 32.2357
(1,9,7): (1,8,7) -15.2268 (1,9,6) -10.7755 (1,9,8) 5.08126 (1,10,7) 20.4718
(1,9,8): (1,8,8) -4.69364 (1,9,7) -5.08126 (1,9,9) 2.46086 (1,10,8) 6.90052
(1,9,9): (1,8,9) -1.59346 (1,9,8) -2.46086 (1,9,10) 1.00241 (1,10,9) 2.67526
(1,9,10): (1,8,10) -0.714720 (1,9,9) -1.00241 (1,10,10) 1.36319
(1,10,1): (1,9,1) -0.536421 (1,10,2) -1.221292E-03 (1,11,1) 0.399537
(1,10,2): (1,9,2) -1.03697 (1,10,1) 1.221292E-03 (1,10,3) 0.250931 (1,11,2) 0.613741
(1,10,3): (1,9,3) -2.54705 (1,10,2) -0.250931 (1,10,4) 1.58882 (1,11,3) 0.972363
(1,10,4): (1,9,4) -6.85187 (1,10,3) -1.58882 (1,10,5) 7.29527 (1,11,4) 0.801247
(1,10,5): (1,9,5) -20.4556 (1,10,4) -7.29527 (1,10,6) -1.01249 (1,11,5) -3.83699
(1,10,6): (1,9,6) -32.2357 (1,10,5) 1.01249 (1,10,7) 1.00689 (1,11,6) -2.42343
(1,10,7): (1,9,7) -20.4718 (1,10,6) -1.00689 (1,10,8) -7.30757 (1,11,7) -3.82131
(1,10,8): (1,9,8) -6.90052 (1,10,7) 7.30757 (1,10,9) -1.61425 (1,11,8) 0.844173
(1,10,9): (1,9,9) -2.67526 (1,10,8) 1.61425 (1,10,10) -0.288861 (1,11,9) 1.07523
(1,10,10): (1,9,10) -1.36319 (1,10,9) 0.288861 (1,11,10) 0.838554
(1,11,1): (1,10,1) -0.399537 (1,11,2) 0.212133 (1,12,1) 0.153833
(1,11,2): (1,10,2) -0.613741 (1,11,1) -0.212133 (1,11,3) 0.608288 (1,12,2) 0.165604
(1,11,3): (1,10,3) -0.972363 (1,11,2) -0.608288 (1,11,4) 1.41662 (1,12,3) 7.253452E-02
(1,11,4): (1,10,4) -0.801247 (1,11,3) -1.41662 (1,11,5) 2.52526 (1,12,4) -0.463439
(1,11,5): (1,10,5) 3.83699 (1,11,4) -2.52526 (1,11,6) 0.368829 (1,12,5) -1.91928
(1,11,6): (1,10,6) 2.42343 (1,11,5) -0.368829 (1,11,7) -0.359171 (1,12,6) -1.95976
(1,11,7): (1,10,7) 3.82131 (1,11,6) 0.359171 (1,11,8) -2.50897 (1,12,7) -1.91125
(1,11,8): (1,10,8) -0.844173 (1,11,7) 2.50897 (1,11,9) -1.38194 (1,12,8) -0.442611
(1,11,9): (1,10,9) -1.07523 (1,11,8) 1.38194 (1,11,10) -0.524285 (1,12,9) 0.116048
(1,11,10): (1,10,10) -0.838554 (1,11,9) 0.524285 (1,12,10) 0.240704
(1,12,1): (1,11,1) -0.153833 (1,12,2) 0.223911 (1,13,1) -1.470084E-02
(1,12,2): (1,11,2) -0.165604 (1,12,1) -0.223911 (1,12,3) 0.514813 (1,13,2) -7.135587E-02
(1,12,3): (1,11,3) -7.253452E-02 (1,12,2) -0.514813 (1,12,4) 0.875821 (1,13,3) -0.241642
(1,12,4): (1,11,4) 0.463439 (1,12,3) -0.875821 (1,12,5) 1.06145 (1,13,4) -0.620362
(1,12,5): (1,11,5) 1.91928 (1,12,4) -1.06145 (1,12,6) 0.328837 (1,13,5) -1.18368
(1,12,6): (1,11,6) 1.95976 (1,12,5) -0.328837 (1,12,7) -0.311269 (1,13,6) -1.32466
(1,12,7): (1,11,7) 1.91125 (1,12,6) 0.311269 (1,12,8) -1.03241 (1,13,7) -1.18272
(1,12,8): (1,11,8) 0.442611 (1,12,7) 1.03241 (1,12,9) -0.818398 (1,13,8) -0.618841
(1,12,9): (1,11,9) -0.116048 (1,12,8) 0.818398 (1,12,10) -0.399281 (1,13,9) -0.242651
(1,12,10): (1,11,10) -0.240704 (1,12,9) 0.399281 (1,13,10) -8.807166E-02
(1,13,1): (1,12,1) 1.470084E-02 (1,13,2) 0.167170 (1,14,1) -7.298271E-02
(1,13,2): (1,12,2) 7.135587E-02 (1,13,1) -0.167170 (1,13,3) 0.344073 (1,14,2) -0.128706
(1,13,3): (1,12,3) 0.241642 (1,13,2) -0.344073 (1,13,4) 0.496176 (1,14,3) -0.258212
(1,13,4): (1,12,4) 0.620362 (1,13,3) -0.496176 (1,13,5) 0.498778 (1,14,4) -0.473933
(1,13,5): (1,12,5) 1.18368 (1,13,4) -0.498778 (1,13,6) 0.189129 (1,14,5) -0.718098
(1,13,6): (1,12,6) 1.32466 (1,13,5) -0.189129 (1,13,7) -0.170637 (1,14,6) -0.804489
(1,13,7): (1,12,7) 1.18272 (1,13,6) 0.170637 (1,13,8) -0.469320 (1,14,7) -0.720458
(1,13,8): (1,12,8) 0.618841 (1,13,7) 0.469320 (1,13,9) -0.441491 (1,14,8) -0.480879
(1,13,9): (1,12,9) 0.242651 (1,13,8) 0.441491 (1,13,10) -0.244466 (1,14,9) -0.276097
(1,13,10): (1,12,10) 8.807166E-02 (1,13,9) 0.244466 (1,14,10) -0.172364
(1,14,1): (1,13,1) 7.298271E-02 (1,14,2) 0.111426 (1,15,1) -5.411202E-02
(1,14,2): (1,13,2) 0.128706 (1,14,1) -0.111426 (1,14,3) 0.214458 (1,15,2) -8.475700E-02
(1,14,3): (1,13,3) 0.258212 (1,14,2) -0.214458 (1,14,4) 0.280409 (1,15,3) -0.149597
(1,14,4): (1,13,4) 0.473933 (1,14,3) -0.280409 (1,14,5) 0.255124 (1,15,4) -0.244922
(1,14,5): (1,13,5) 0.718098 (1,14,4) -0.255124 (1,14,6) 0.103240 (1,15,5) -0.340411
(1,14,6): (1,13,6) 0.804489 (1,14,5) -0.103240 (1,14,7) -8.711047E-02 (1,15,6) -0.377676
(1,14,7): (1,13,7) 0.720458 (1,14,6) 8.711047E-02 (1,14,8) -0.230315 (1,15,7) -0.342543
(1,14,8): (1,13,8) 0.480879 (1,14,7) 0.230315 (1,14,9) -0.236787 (1,15,8) -0.250831
(1,14,9): (1,13,9) 0.276097 (1,14,8) 0.236787 (1,14,10) -0.140765 (1,15,9) -0.163479
(1,14,10): (1,13,10) 0.172364 (1,14,9) 0.140765 (1,15,10) -0.115056
(1,15,1): (1,14,1) 5.411202E-02 (1,15,2) 8.077310E-02
(1,15,2): (1,14,2) 8.475700E-02 (1,15,1) -8.077310E-02 (1,15,3) 0.149577
(1,15,3): (1,14,3) 0.149597 (1,15,2) -0.149577 (1,15,4) 0.185050
(1,15,4): (1,14,4) 0.244922 (1,15,3) -0.185050 (1,15,5) 0.159714
(1,15,5): (1,14,5) 0.340411 (1,15,4) -0.159714 (1,15,6) 6.607502E-02
(1,15,6): (1,14,6) 0.377676 (1,15,5) -6.607502E-02 (1,15,7) -5.207685E-02
(1,15,7): (1,14,7) 0.342543 (1,15,6) 5.207685E-02 (1,15,8) -0.138702
(1,15,8): (1,14,8) 0.250831 (1,15,7) 0.138702 (1,15,9) -0.149447
(1,15,9): (1,14,9) 0.163479 (1,15,8) 0.149447 (1,15,10) -9.235268E-02
(1,15,10): (1,14,10) 0.115056 (1,15,9) 9.235268E-02

 WEL PACKAGE (WEL-1) FLOW RATES   PERIOD      2   STEP      100
 ----------------------------------------------------------------------------------------
   NUMBER   CELLID                    RATE       NAME                                    
 ----------------------------------------------------------------------------------------
     1      (1,8,6)              -204.04413      WEL                                     
 ----------------------------------------------------------------------------------------




 DRN PACKAGE (DRN-0) FLOW RATES   PERIOD      2   STEP      100
 ----------------------------------------------------------------------------------------
   NUMBER   CELLID                    RATE       NAME                                    
 ----------------------------------------------------------------------------------------
     1      (1,1,1)               0.0000000      SURF                                    
     2      (1,1,2)               0.0000000      SURF                                    
     3      (1,1,3)               0.0000000      SURF                                    
     4      (1,1,4)               0.0000000      SURF                                    
     5      (1,1,5)               0.0000000      SURF                                    
     6      (1,1,6)               0.0000000      SURF                                    
     7      (1,1,7)               0.0000000      SURF                                    
     8      (1,1,8)               0.0000000      SURF                                    
     9      (1,1,9)               0.0000000      SURF                                    
     10     (1,1,10)              0.0000000      SURF                                    
     11     (1,2,1)               0.0000000      SURF                                    
     12     (1,2,2)               0.0000000      SURF                                    
     13     (1,2,3)               0.0000000      SURF                                    
     14     (1,2,4)               0.0000000      SURF                                    
     15     (1,2,5)               0.0000000      SURF                                    
     16     (1,2,6)               0.0000000      SURF                                    
     17     (1,2,7)               0.0000000      SURF                                    
     18     (1,2,8)               0.0000000      SURF                                    
     19     (1,2,9)               0.0000000      SURF                                    
     20     (1,2,10)              0.0000000      SURF                                    
     21     (1,3,1)               0.0000000      SURF                                    
     22     (1,3,2)               0.0000000      SURF                                    
     23     (1,3,3)               0.0000000      SURF                                    
     24     (1,3,4)               0.0000000      SURF                                    
     25     (1,3,5)               0.0000000      SURF                                    
     26     (1,3,6)               0.0000000      SURF                                    
     27     (1,3,7)               0.0000000      SURF                                    
     28     (1,3,8)               0.0000000      SURF                                    
     29     (1,3,9)               0.0000000      SURF                                    
     30     (1,3,10)              0.0000000      SURF                                    
     31     (1,4,1)               0.0000000      SURF                                    
     32     (1,4,2)               0.0000000      SURF                                    
     33     (1,4,3)               0.0000000      SURF                                    
     34     (1,4,4)               0.0000000      SURF                                    
     35     (1,4,5)               0.0000000      SURF                                    
     36     (1,4,6)               0.0000000      SURF                                    
     37     (1,4,7)               0.0000000      SURF                                    
     38     (1,4,8)               0.0000000      SURF                                    
     39     (1,4,9)               0.0000000      SURF                                    
     40     (1,4,10)              0.0000000      SURF                                    
     41     (1,5,1)               0.0000000      SURF                                    
     42     (1,5,2)               0.0000000      SURF                                    
     43     (1,5,3)               0.0000000      SURF                                    
     44     (1,5,4)               0.0000000      SURF                                    
     45     (1,5,5)               0.0000000      SURF                                    
     46     (1,5,6)               0.0000000      SURF                                    
     47     (1,5,7)               0.0000000      SURF                                    
     48     (1,5,8)               0.0000000      SURF                                    
     49     (1,5,9)               0.0000000      SURF                                    
     50     (1,5,10)              0.0000000      SURF                                    
     51     (1,6,1)               0.0000000      SURF                                    
     52     (1,6,2)               0.0000000      SURF                                    
     53     (1,6,3)               0.0000000      SURF                                    
     54     (1,6,4)               0.0000000      SURF                                    
     55     (1,6,5)              -1.85750085E-02 SURF                                    
     56     (1,6,6)               0.0000000      SURF                                    
     57     (1,6,7)              -3.13011697E-07 SURF                                    
     58     (1,6,8)               0.0000000      SURF                                    
     59     (1,6,9)               0.0000000      SURF                                    
     60     (1,6,10)              0.0000000      SURF                                    
     61     (1,7,1)               0.0000000      SURF                                    
     62     (1,7,2)               0.0000000      SURF                                    
     63     (1,7,3)               0.0000000      SURF                                    
     64     (1,7,4)               0.0000000      SURF                                    
     65     (1,7,5)               0.0000000      SURF                                    
     66     (1,7,6)               0.0000000      SURF                                    
     67     (1,7,7)               0.0000000      SURF                                    
     68     (1,7,8)               0.0000000      SURF                                    
     69     (1,7,9)               0.0000000      SURF                                    
     70     (1,7,10)              0.0000000      SURF                                    
     71     (1,8,1)               0.0000000      SURF                                    
     72     (1,8,2)               0.0000000      SURF                                    
     73     (1,8,3)               0.0000000      SURF                                    
     74     (1,8,4)               0.0000000      SURF                                    
     75     (1,8,5)               0.0000000      SURF                                    
     76     (1,8,6)               0.0000000      SURF                                    
     77     (1,8,7)               0.0000000      SURF                                    
     78     (1,8,8)               0.0000000      SURF                                    
     79     (1,8,9)               0.0000000      SURF                                    
     80     (1,8,10)              0.0000000      SURF                                    
     81     (1,9,1)               0.0000000      SURF                                    
     82     (1,9,2)               0.0000000      SURF                                    
     83     (1,9,3)               0.0000000      SURF                                    
     84     (1,9,4)               0.0000000      SURF                                    
     85     (1,9,5)               0.0000000      SURF                                    
     86     (1,9,6)               0.0000000      SURF                                    
     87     (1,9,7)               0.0000000      SURF                                    
     88     (1,9,8)               0.0000000      SURF                                    
     89     (1,9,9)               0.0000000      SURF                                    
     90     (1,9,10)              0.0000000      SURF                                    
     91     (1,10,1)              0.0000000      SURF                                    
     92     (1,10,2)              0.0000000      SURF                                    
     93     (1,10,3)              0.0000000      SURF                                    
     94     (1,10,4)              0.0000000      SURF                                    
     95     (1,10,5)              0.0000000      SURF                                    
     96     (1,10,6)              0.0000000      SURF                                    
     97     (1,10,7)              0.0000000      SURF                                    
     98     (1,10,8)              0.0000000      SURF                                    
     99     (1,10,9)              0.0000000      SURF                                    
    100     (1,10,10)             0.0000000      SURF                                    
    101     (1,11,1)              0.0000000      SURF                                    
    102     (1,11,2)              0.0000000      SURF                                    
    103     (1,11,3)              0.0000000      SURF                                    
    104     (1,11,4)              0.0000000      SURF                                    
    105     (1,11,5)              0.0000000      SURF                                    
    106     (1,11,6)              0.0000000      SURF                                    
    107     (1,11,7)              0.0000000      SURF                                    
    108     (1,11,8)              0.0000000      SURF                                    
    109     (1,11,9)              0.0000000      SURF                                    
    110     (1,11,10)             0.0000000      SURF                                    
    111     (1,12,1)              0.0000000      SURF                                    
    112     (1,12,2)              0.0000000      SURF                                    
    113     (1,12,3)              0.0000000      SURF                                    
    114     (1,12,4)              0.0000000      SURF                                    
    115     (1,12,5)              0.0000000      SURF                                    
    116     (1,12,6)              0.0000000      SURF                                    
    117     (1,12,7)              0.0000000      SURF                                    
    118     (1,12,8)              0.0000000      SURF                                    
    119     (1,12,9)              0.0000000      SURF                                    
    120     (1,12,10)             0.0000000      SURF                                    
    121     (1,13,1)              0.0000000      SURF                                    
    122     (1,13,2)              0.0000000      SURF                                    
    123     (1,13,3)              0.0000000      SURF                                    
    124     (1,13,4)              0.0000000      SURF                                    
    125     (1,13,5)              0.0000000      SURF                                    
    126     (1,13,6)              0.0000000      SURF                                    
    127     (1,13,7)              0.0000000      SURF                                    
    128     (1,13,8)              0.0000000      SURF                                    
    129     (1,13,9)              0.0000000      SURF                                    
    130     (1,13,10)             0.0000000      SURF                                    
    131     (1,14,1)              0.0000000      SURF                                    
    132     (1,14,2)              0.0000000      SURF                                    
    133     (1,14,3)              0.0000000      SURF                                    
    134     (1,14,4)              0.0000000      SURF                                    
    135     (1,14,5)              0.0000000      SURF                                    
    136     (1,14,6)              0.0000000      SURF                                    
    137     (1,14,7)              0.0000000      SURF                                    
    138     (1,14,8)              0.0000000      SURF                                    
    139     (1,14,9)              0.0000000      SURF                                    
    140     (1,14,10)             0.0000000      SURF                                    
    141     (1,15,1)              0.0000000      SURF                                    
    142     (1,15,2)              0.0000000      SURF                                    
    143     (1,15,3)              0.0000000      SURF                                    
    144     (1,15,4)              0.0000000      SURF                                    
    145     (1,15,5)              0.0000000      SURF                                    
    146     (1,15,6)              0.0000000      SURF                                    
    147     (1,15,7)              0.0000000      SURF                                    
    148     (1,15,8)              0.0000000      SURF                                    
    149     (1,15,9)              0.0000000      SURF                                    
    150     (1,15,10)             0.0000000      SURF                                    
 ----------------------------------------------------------------------------------------




 API PACKAGE (MAR) FLOW RATES   PERIOD      2   STEP      100
 -----------------------------------------------
   NUMBER   CELLID                    RATE      
 -----------------------------------------------
     1      (1,6,5)               35.937882     
     2      (1,6,6)               35.937882     
     3      (1,6,7)               35.937882     
     4      (1,10,5)              32.076828     
     5      (1,10,6)              32.076828     
     6      (1,10,7)              32.076828     
 -----------------------------------------------



1
  HEAD IN LAYER   1 AT END OF TIME STEP 100 IN STRESS PERIOD    2
  ---------------------------------------------------------------------------

            1           2           3           4           5           6           7           8           9          10
 ........................................................................................................................
   1   2.9432E-02  3.7940E-02  5.3654E-02  7.3054E-02  8.9797E-02  9.6766E-02  9.1405E-02  7.7015E-02  6.1502E-02  5.1911E-02
   2   3.5243E-02  4.6953E-02  6.9466E-02  9.8910E-02  0.1258      0.1367      0.1276      0.1035      7.8781E-02  6.4105E-02
   3   4.3235E-02  6.0888E-02  9.7263E-02  0.1499      0.2030      0.2233      0.2051      0.1552      0.1085      8.2693E-02
   4   4.5517E-02  6.9641E-02  0.1252      0.2200      0.3348      0.3713      0.3368      0.2252      0.1367      9.3554E-02
   5   3.0723E-02  5.4981E-02  0.1242      0.2827      0.5579      0.6043      0.5592      0.2859      0.1314      7.1914E-02
   6  -9.5986E-03 -5.7587E-03  3.2323E-02  0.2263       1.000      0.9296       1.000      0.2253      2.9329E-02 -1.1118E-02
   7  -6.5454E-02 -0.1133     -0.2314     -0.4759     -0.9793      -2.171     -0.9811     -0.4821     -0.2478     -0.1525    
   8  -9.4502E-02 -0.1747     -0.4016     -0.9999      -2.748      -9.254      -2.751      -1.009     -0.4251     -0.2322    
   9  -6.8526E-02 -0.1188     -0.2443     -0.5075      -1.048      -2.254      -1.050     -0.5141     -0.2614     -0.1596    
  10  -1.4805E-02 -1.4927E-02  1.0141E-02  0.1664      0.8395      0.7460      0.8389      0.1647      5.9346E-03 -2.2934E-02
  11   2.5049E-02  4.6165E-02  0.1064      0.2446      0.4855      0.5205      0.4864      0.2471      0.1123      6.0417E-02
  12   4.0371E-02  6.2622E-02  0.1135      0.1994      0.3024      0.3342      0.3041      0.2039      0.1237      8.4287E-02
  13   3.8906E-02  5.5531E-02  8.9633E-02  0.1386      0.1875      0.2061      0.1893      0.1433      9.9758E-02  7.5553E-02
  14   3.1636E-02  4.2732E-02  6.4041E-02  9.1827E-02  0.1170      0.1272      0.1186      9.5875E-02  7.2421E-02  5.8446E-02
  15   2.6242E-02  3.4292E-02  4.9176E-02  6.7557E-02  8.3397E-02  8.9945E-02  8.4784E-02  7.1030E-02  5.6191E-02  4.7007E-02

 HEAD WILL BE SAVED ON UNIT 1100 AT END OF TIME STEP  100, STRESS PERIOD    2


  VOLUME BUDGET FOR ENTIRE MODEL AT END OF TIME STEP  100, STRESS PERIOD   2
  ---------------------------------------------------------------------------------------------------

     CUMULATIVE VOLUME      L**3       RATES FOR THIS TIME STEP      L**3/T          PACKAGE NAME    
     ------------------                 ------------------------                     ----------------

           IN:                                      IN:
           ---                                      ---
              STO-SS =          26.2814                STO-SS =       6.9142E-03     STORAGE                          
              STO-SY =       64244.1398                STO-SY =          14.2856     STORAGE                          
                 WEL =           0.0000                   WEL =           0.0000     WEL-1                            
                 DRN =           0.0000                   DRN =           0.0000     DRN-0                            
                 API =      204608.6495                   API =         204.0441     MAR                              
                 CHD =       2.0279E-08                   CHD =           0.0000     CHD_0                            

            TOTAL IN =      268879.0706              TOTAL IN =         218.3366

          OUT:                                     OUT:
          ----                                     ----
              STO-SS =          22.8530                STO-SS =       7.2210E-03     STORAGE                          
              STO-SY =       44677.6162                STO-SY =          14.2667     STORAGE                          
                 WEL =      224177.4557                   WEL =         204.0441     WEL-1                            
                 DRN =           1.1458                   DRN =       1.8575E-02     DRN-0                            
                 API =           0.0000                   API =           0.0000     MAR                              
                 CHD =       2.0705E-08                   CHD =           0.0000     CHD_0                            

           TOTAL OUT =      268879.0706             TOTAL OUT =         218.3366

            IN - OUT =      -7.5880E-07              IN - OUT =       1.9539E-09

 PERCENT DISCREPANCY =          -0.00     PERCENT DISCREPANCY =           0.00




         TIME SUMMARY AT END OF TIME STEP  100 IN STRESS PERIOD    2
                    SECONDS     MINUTES      HOURS       DAYS        YEARS
                    -----------------------------------------------------------
   TIME STEP LENGTH 8.64000E+05  14400.      240.00      10.000     2.73785E-02
 STRESS PERIOD TIME 8.64000E+07 1.44000E+06  24000.      1000.0      2.7379    
         TOTAL TIME 8.64864E+07 1.44144E+06  24024.      1001.0      2.7406    


end timestep

