                                   MODFLOW 6
                U.S. GEOLOGICAL SURVEY MODULAR HYDROLOGIC MODEL
                          GROUNDWATER FLOW MODEL (GWF)
                   VERSION 6.4.0 release candidate 07/06/2022
                               ***DEVELOP MODE***

   MODFLOW 6 compiled Jul 06 2022 19:38:41 with Intel(R) Fortran Intel(R) 64
   Compiler Classic for applications running on Intel(R) 64, Version 2021.6.0
                             Build 20220226_000000

This software is preliminary or provisional and is subject to 
revision. It is being provided to meet the need for timely best 
science. The software has not received final approval by the U.S. 
Geological Survey (USGS). No warranty, expressed or implied, is made 
by the USGS or the U.S. Government as to the functionality of the 
software and related material nor shall the fact of release 
constitute any such warranty. The software is provided on the 
condition that neither the USGS nor the U.S. Government shall be held 
liable for any damages resulting from the authorized or unauthorized 
use of the software.


As a work of the United States Government, this USGS product is 
in the public domain within the United States. You can copy, 
modify, distribute, and perform the work, even for commercial 
purposes, all without asking permission. Additionally, USGS 
waives copyright and related rights in the work worldwide 
through CC0 1.0 Universal Public Domain Dedication 
(https://creativecommons.org/publicdomain/zero/1.0/).

The following GNU Lesser General Public License (LGPL) libraries
are used in this USGS product:

    SPARSKIT version 2.0
      ilut, luson, and qsplit 
      (https://www-users.cse.umn.edu/~saad/software/SPARSKIT/)

    RCM - Reverse Cuthill McKee Ordering
      (https://people.math.sc.edu/Burkardt/f_src/rcm/rcm.html)

    BLAS - Basic Linear Algebra Subprograms Level 1
      (https://people.math.sc.edu/Burkardt/f_src/blas1_d/blas1_d.html)

    SPARSEKIT - Sparse Matrix Utility Package
      amux, dperm, dvperm, rperm, and cperm
      (https://people.sc.fsu.edu/~jburkardt/f77_src/sparsekit/sparsekit.html)

The following BSD-3 License libraries are used in this USGS product:

    Modern Fortran DAG Library
      Copyright (c) 2018, Jacob Williams
      All rights reserved.
      (https://github.com/jacobwilliams/daglib)

MODFLOW 6 compiler options: /Isrc\libmf6core.a.p /Isrc /I..\src
/Isrc\libmf6_external.a.p /MTd /nologo /warn:general /warn:truncated_source
/stand:f08 /Zi /traceback /O2 /Zi /fpe:0 /heap-arrays:0 /traceback /fpp
/Qdiag-disable:7416 /Qdiag-disable:7025 /Qdiag-disable:5268
/Fdsrc\libmf6core.a.p\Utilities_compilerversion.F90.pdb
/module:src\libmf6core.a.p
/Fosrc/libmf6core.a.p/Utilities_compilerversion.F90.obj /c

System command used to initiate simulation:
d:\Workspace\hugm0001\anaconda\python.exe -m ipykernel_launcher --ip=127.0.0.1 --stdin=9023 --control=9021 --hb=9020 "--Session.signature_scheme=\"hmac-sha256\"" "--Session.key=b\"8cfd950c-0c61-4b1d-8223-58d81f209f12\"" --shell=9022 "--transport=\"tcp\"" --iopub=9024 --f=c:\Users\hugm0001\AppData\Roaming\jupyter\runtime\kernel-v2-8744vrWotwXCyYHw.json

MODFLOW was compiled using uniform precision.

Real Variables
  KIND: 8
  TINY (smallest non-zero value):    2.225074-308
  HUGE (largest value):    1.797693+308
  PRECISION: 15
  BIT SIZE: 64

Integer Variables
  KIND: 4
  HUGE (largest value): 2147483647
  BIT SIZE: 32

Long Integer Variables
  KIND: 8
  HUGE (largest value): 9223372036854775807
  BIT SIZE: 64

Logical Variables
  KIND: 4
  BIT SIZE: 32
 

 OPENED gwf.dis
 FILE TYPE:DIS6                   UNIT 1029   STATUS:OLD                 
 FORMAT:FORMATTED              ACCESS:SEQUENTIAL          
 ACTION:READ                


 OPENED gwf.ic
 FILE TYPE:IC6                    UNIT 1030   STATUS:OLD                 
 FORMAT:FORMATTED              ACCESS:SEQUENTIAL          
 ACTION:READ                


 OPENED gwf.npf
 FILE TYPE:NPF6                   UNIT 1031   STATUS:OLD                 
 FORMAT:FORMATTED              ACCESS:SEQUENTIAL          
 ACTION:READ                


 OPENED gwf.chd
 FILE TYPE:CHD6                   UNIT 1032   STATUS:OLD                 
 FORMAT:FORMATTED              ACCESS:SEQUENTIAL          
 ACTION:READ                


 OPENED gwf.oc
 FILE TYPE:OC6                    UNIT 1033   STATUS:OLD                 
 FORMAT:FORMATTED              ACCESS:SEQUENTIAL          
 ACTION:READ                


 OPENED gwf.sto
 FILE TYPE:STO6                   UNIT 1034   STATUS:OLD                 
 FORMAT:FORMATTED              ACCESS:SEQUENTIAL          
 ACTION:READ                


 OPENED gwf.wel
 FILE TYPE:WEL6                   UNIT 1035   STATUS:OLD                 
 FORMAT:FORMATTED              ACCESS:SEQUENTIAL          
 ACTION:READ                


 OPENED gwf.api
 FILE TYPE:API6                   UNIT 1036   STATUS:OLD                 
 FORMAT:FORMATTED              ACCESS:SEQUENTIAL          
 ACTION:READ                

 NAMEFILE OPTIONS:
    PACKAGE FLOWS WILL BE PRINTED FOR ALL MODEL PACKAGES
    FLOWS WILL BE SAVED TO BUDGET FILE SPECIFIED IN OUTPUT CONTROL
    NEWTON-RAPHSON method enabled for the model.

 DIS -- STRUCTURED GRID DISCRETIZATION PACKAGE, VERSION 2 : 3/27/2014 - INPUT READ FROM UNIT 1029


 # File generated by Flopy version 3.3.6 on 07/16/2022 at 09:59:49.
 PROCESSING DISCRETIZATION OPTIONS
 END OF DISCRETIZATION OPTIONS
 MODEL LENGTH UNIT IS UNDEFINED
 PROCESSING DISCRETIZATION DIMENSIONS
    NLAY =       1
    NROW =      15
    NCOL =      10
 END OF DISCRETIZATION DIMENSIONS
 PROCESSING GRIDDATA

                     DELR =   100.0000    

                     DELC =   100.0000    

 TOP ELEVATION OF LAYER 1 =   10.00000    

   MODEL LAYER BOTTOM EL. =  -10.00000    
 END PROCESSING GRIDDATA

 NPF -- NODE PROPERTY FLOW PACKAGE, VERSION 1, 3/30/2015 INPUT READ FROM UNIT 1031


 # File generated by Flopy version 3.3.6 on 07/16/2022 at 09:59:49.
 PROCESSING NPF OPTIONS
    CELL-BY-CELL FLOW INFORMATION WILL BE SAVED TO BINARY FILE WHENEVER ICBCFL IS NOT ZERO.
    SPECIFIC DISCHARGE WILL BE CALCULATED AT CELL CENTERS AND WRITTEN TO DATA-SPDIS IN BUDGET FILE WHEN REQUESTED.
 END OF NPF OPTIONS

 WEL   -- WEL PACKAGE, VERSION 8, 2/22/2014 INPUT READ FROM UNIT 1035
 # File generated by Flopy version 3.3.6 on 07/16/2022 at 09:59:49.

 PROCESSING WEL OPTIONS
    WEL BOUNDARIES HAVE NAMES IN LAST COLUMN.
    AUTOMATIC FLOW REDUCTION OF WELLS IMPLEMENTED.
    AUTOMATIC FLOW REDUCTION FRACTION (  0.1000000    ).

 OPENED hd1h_well_reduce.csv
 FILE TYPE:CSV   UNIT 1038   STATUS:REPLACE             
 FORMAT:FORMATTED              ACCESS:SEQUENTIAL          
 ACTION:READWRITE           

    AUTO FLOW REDUCE INFORMATION WILL BE SAVED TO FILE: hd1h_well_reduce.csv
    OPENED ON UNIT: 1038

 OPENED gwf.wel.obs
 FILE TYPE:OBS   UNIT 1039   STATUS:OLD                 
 FORMAT:FORMATTED              ACCESS:SEQUENTIAL          
 ACTION:READ                

 END OF WEL OPTIONS

 PROCESSING WEL DIMENSIONS
    MAXBOUND =       1
 END OF WEL DIMENSIONS

 API   -- API PACKAGE, VERSION 8, 2/22/2014 INPUT READ FROM UNIT 1036
 # File generated by Flopy version 3.3.6 on 07/16/2022 at 09:59:49.

 PROCESSING API OPTIONS
 END OF API OPTIONS

 PROCESSING API DIMENSIONS
    MAXBOUND =     150
 END OF API DIMENSIONS

 CHD   -- CHD PACKAGE, VERSION 8, 2/22/2014 INPUT READ FROM UNIT 1032
 # File generated by Flopy version 3.3.6 on 07/16/2022 at 09:59:49.

 PROCESSING CHD OPTIONS
    CHD BOUNDARIES HAVE NAMES IN LAST COLUMN.

 OPENED gwf.chd.obs
 FILE TYPE:OBS   UNIT 1040   STATUS:OLD                 
 FORMAT:FORMATTED              ACCESS:SEQUENTIAL          
 ACTION:READ                

 END OF CHD OPTIONS

 PROCESSING CHD DIMENSIONS
    MAXBOUND =      30
 END OF CHD DIMENSIONS

 IC -- INITIAL CONDITIONS PACKAGE, VERSION 8, 3/28/2015 INPUT READ FROM UNIT 1030
 # File generated by Flopy version 3.3.6 on 07/16/2022 at 09:59:49.
 PROCESSING GRIDDATA

     INITIAL HEAD =   10.00000    
 END PROCESSING GRIDDATA
 PROCESSING GRIDDATA

                ICELLTYPE = 1

                        K =   1.000000    

                      K33 =   1.000000    
 K22 not provided.  Assuming K22 = K.
 END PROCESSING GRIDDATA

 STO -- STORAGE PACKAGE, VERSION 1, 5/19/2014 INPUT READ FROM UNIT 1034


 # File generated by Flopy version 3.3.6 on 07/16/2022 at 09:59:49.
 PROCESSING STORAGE OPTIONS
    CELL-BY-CELL FLOW INFORMATION WILL BE SAVED TO BINARY FILE WHENEVER ICBCFL IS NOT ZERO.
 END OF STORAGE OPTIONS
 PROCESSING GRIDDATA

                 ICONVERT = 1

         SPECIFIC STORAGE =  0.1000000E-04

           SPECIFIC YIELD =  0.2000000    
 END PROCESSING GRIDDATA
    BINARY GRID INFORMATION WILL BE WRITTEN TO:
      UNIT NUMBER: 1041
      FILE NAME: d:\Workspace\hugm0001\github\mf6api_test_cases\examples\redistribute_rch\model\gwf.dis.grb

 OPENED d:\Workspace\hugm0001\github\mf6api_test_cases\examples\redistribute_rch\model\gwf.dis.grb
 FILE TYPE:DATA(BINARY)   UNIT 1041   STATUS:REPLACE             
 FORMAT:UNFORMATTED            ACCESS:STREAM              
 ACTION:READWRITE           

      THE LAST TIME STEP WILL BE PRINTED
      THE LAST TIME STEP WILL BE PRINTED
 # File generated by Flopy version 3.3.6 on 07/16/2022 at 09:59:49.

 PROCESSING OC OPTIONS

    BUDGET INFORMATION WILL BE WRITTEN TO:
      UNIT NUMBER: 1042
      FILE NAME: gwf.cbb

 OPENED gwf.cbb
 FILE TYPE:DATA(BINARY)   UNIT 1042   STATUS:REPLACE             
 FORMAT:UNFORMATTED            ACCESS:STREAM              
 ACTION:READWRITE           

    HEAD INFORMATION WILL BE WRITTEN TO:
      UNIT NUMBER: 1043
      FILE NAME: gwf.hds

 OPENED gwf.hds
 FILE TYPE:DATA(BINARY)   UNIT 1043   STATUS:REPLACE             
 FORMAT:UNFORMATTED            ACCESS:STREAM              
 ACTION:READWRITE           

 END OF OC OPTIONS

The observation utility is active for "WEL-1"
 # File generated by Flopy version 3.3.6 on 07/16/2022 at 09:59:49.

Processing observation options:

Text output number of digits of precision set to:  9
The PRINT_INPUT option has been specified.


 OBSERVATIONS READ FROM FILE "gwf.wel.obs"
 ----------------------------------------------------------------------------------------------------------------------------------------------------------------------------------------------------------------------------
 NAME                                     TYPE                                       TIME         LOCATION DATA                              OUTPUT FILENAME                                                                 
 ----------------------------------------------------------------------------------------------------------------------------------------------------------------------------------------------------------------------------
 WEL                                      CONTINUOUS  WEL                            ALL TIMES    "  wel"                                    wel.csv                                                                         
 ----------------------------------------------------------------------------------------------------------------------------------------------------------------------------------------------------------------------------



The observation utility is active for "CHD_0"
 # File generated by Flopy version 3.3.6 on 07/16/2022 at 09:59:49.

Processing observation options:

Text output number of digits of precision set to:  9


start timestep kper="1" kstp="1" mode="normal"


 BEGIN READING OUTPUT CONTROL FOR STRESS PERIOD 1
      ALL TIME STEPS WILL BE SAVED
      ALL TIME STEPS WILL BE SAVED
      ALL TIME STEPS WILL BE PRINTED
      ALL TIME STEPS WILL BE PRINTED

 END READING OUTPUT CONTROL FOR STRESS PERIOD 1


 PROCESSING STORAGE PERIOD DATA
 END PROCESSING STORAGE PERIOD DATA


 STRESS PERIOD 1 IS STEADY-STATE


 REUSING WELS FROM LAST STRESS PERIOD
 UBDSV1 SAVING           STO-SS ON UNIT   1042 AT TIME STEP      1, STRESS PERIOD      1
 UBDSV1 SAVING           STO-SY ON UNIT   1042 AT TIME STEP      1, STRESS PERIOD      1
 UBDSV1 SAVING     FLOW-JA-FACE ON UNIT   1042 AT TIME STEP      1, STRESS PERIOD      1
 UBDSV06 SAVING       DATA-SPDIS IN MODEL GWF              PACKAGE NPF             CONNECTED TO MODEL GWF              PACKAGE NPF              ON UNIT   1042 AT TIME STEP      1, STRESS PERIOD      1
 UBDSV06 SAVING              WEL IN MODEL GWF              PACKAGE GWF             CONNECTED TO MODEL GWF              PACKAGE WEL-1            ON UNIT   1042 AT TIME STEP      1, STRESS PERIOD      1
 UBDSV06 SAVING              API IN MODEL GWF              PACKAGE GWF             CONNECTED TO MODEL GWF              PACKAGE MAR              ON UNIT   1042 AT TIME STEP      1, STRESS PERIOD      1
 UBDSV06 SAVING              CHD IN MODEL GWF              PACKAGE GWF             CONNECTED TO MODEL GWF              PACKAGE CHD_0            ON UNIT   1042 AT TIME STEP      1, STRESS PERIOD      1

    CALCULATED INTERCELL FLOW FOR PERIOD 1 STEP 1
(1,1,1): (1,1,2) 1.673229E-09 (1,2,1) 0.00000
(1,1,2): (1,1,1) -1.673229E-09 (1,1,3) 1.557020E-09 (1,2,2) 1.118035E-10
(1,1,3): (1,1,2) -1.557020E-09 (1,1,4) 1.263426E-09 (1,2,3) 2.063669E-10
(1,1,4): (1,1,3) -1.263426E-09 (1,1,5) 7.909180E-10 (1,2,4) 2.747789E-10
(1,1,5): (1,1,4) -7.909180E-10 (1,1,6) 1.890087E-10 (1,2,5) 3.071024E-10
(1,1,6): (1,1,5) -1.890087E-10 (1,1,7) -4.836441E-10 (1,2,6) 2.983029E-10
(1,1,7): (1,1,6) 4.836441E-10 (1,1,8) -1.149828E-09 (1,2,7) 2.496664E-10
(1,1,8): (1,1,7) 1.149828E-09 (1,1,9) -1.722144E-09 (1,2,8) 1.676874E-10
(1,1,9): (1,1,8) 1.722144E-09 (1,1,10) -2.117985E-09 (1,2,9) 6.977425E-11
(1,1,10): (1,1,9) 2.117985E-09 (1,2,10) 0.00000
(1,2,1): (1,1,1) 0.00000 (1,2,2) 1.785033E-09 (1,3,1) 0.00000
(1,2,2): (1,1,2) -1.118035E-10 (1,2,1) -1.785033E-09 (1,2,3) 1.651584E-09 (1,3,2) 8.749826E-11
(1,2,3): (1,1,3) -2.063669E-10 (1,2,2) -1.651584E-09 (1,2,4) 1.331838E-09 (1,3,3) 1.710725E-10
(1,2,4): (1,1,4) -2.747789E-10 (1,2,3) -1.331838E-09 (1,2,5) 8.232415E-10 (1,3,4) 2.409071E-10
(1,2,5): (1,1,5) -3.071024E-10 (1,2,4) -8.232415E-10 (1,2,6) 1.802091E-10 (1,3,5) 2.853612E-10
(1,2,6): (1,1,6) -2.983029E-10 (1,2,5) -1.802091E-10 (1,2,7) -5.322806E-10 (1,3,6) 2.915889E-10
(1,2,7): (1,1,7) -2.496664E-10 (1,2,6) 5.322806E-10 (1,2,8) -1.231807E-09 (1,3,7) 2.567867E-10
(1,2,8): (1,1,8) -1.676874E-10 (1,2,7) 1.231807E-09 (1,2,9) -1.820058E-09 (1,3,8) 1.878627E-10
(1,2,9): (1,1,9) -6.977425E-11 (1,2,8) 1.820058E-09 (1,2,10) -2.187760E-09 (1,3,9) 9.978572E-11
(1,2,10): (1,1,10) 0.00000 (1,2,9) 2.187760E-09 (1,3,10) 0.00000
(1,3,1): (1,2,1) 0.00000 (1,3,2) 1.872531E-09 (1,4,1) 0.00000
(1,3,2): (1,2,2) -8.749826E-11 (1,3,1) -1.872531E-09 (1,3,3) 1.735158E-09 (1,4,2) 7.253177E-11
(1,3,3): (1,2,3) -1.710725E-10 (1,3,2) -1.735158E-09 (1,3,4) 1.401672E-09 (1,4,3) 1.455323E-10
(1,3,4): (1,2,4) -2.409071E-10 (1,3,3) -1.401672E-09 (1,3,5) 8.676957E-10 (1,4,4) 1.988856E-10
(1,3,5): (1,2,5) -2.853612E-10 (1,3,4) -8.676957E-10 (1,3,6) 1.864368E-10 (1,4,5) 2.245528E-10
(1,3,6): (1,2,6) -2.915889E-10 (1,3,5) -1.864368E-10 (1,3,7) -5.670828E-10 (1,4,6) 2.186743E-10
(1,3,7): (1,2,7) -2.567867E-10 (1,3,6) 5.670828E-10 (1,3,8) -1.300731E-09 (1,4,7) 1.829400E-10
(1,3,8): (1,2,8) -1.878627E-10 (1,3,7) 1.300731E-09 (1,3,9) -1.908135E-09 (1,4,8) 1.266323E-10
(1,3,9): (1,2,9) -9.978572E-11 (1,3,8) 1.908135E-09 (1,3,10) -2.287545E-09 (1,4,9) 6.208817E-11
(1,3,10): (1,2,10) 0.00000 (1,3,9) 2.287545E-09 (1,4,10) 0.00000
(1,4,1): (1,3,1) 0.00000 (1,4,2) 1.945063E-09 (1,5,1) 0.00000
(1,4,2): (1,3,2) -7.253177E-11 (1,4,1) -1.945063E-09 (1,4,3) 1.808158E-09 (1,5,2) 2.058274E-11
(1,4,3): (1,3,3) -1.455323E-10 (1,4,2) -1.808158E-09 (1,4,4) 1.455026E-09 (1,5,3) 3.152982E-11
(1,4,4): (1,3,4) -1.988856E-10 (1,4,3) -1.455026E-09 (1,4,5) 8.933629E-10 (1,5,4) 2.415330E-11
(1,4,5): (1,3,5) -2.245528E-10 (1,4,4) -8.933629E-10 (1,4,6) 1.805582E-10 (1,5,5) 1.324256E-12
(1,4,6): (1,3,6) -2.186743E-10 (1,4,5) -1.805582E-10 (1,4,7) -6.028171E-10 (1,5,6) -2.798478E-11
(1,4,7): (1,3,7) -1.829400E-10 (1,4,6) 6.028171E-10 (1,4,8) -1.357038E-09 (1,5,7) -5.444537E-11
(1,4,8): (1,3,8) -1.266323E-10 (1,4,7) 1.357038E-09 (1,4,9) -1.972679E-09 (1,5,8) -6.588902E-11
(1,4,9): (1,3,9) -6.208817E-11 (1,4,8) 1.972679E-09 (1,4,10) -2.349634E-09 (1,5,9) -5.036634E-11
(1,4,10): (1,3,10) 0.00000 (1,4,9) 2.349634E-09 (1,5,10) 0.00000
(1,5,1): (1,4,1) 0.00000 (1,5,2) 1.965645E-09 (1,6,1) 0.00000
(1,5,2): (1,4,2) -2.058274E-11 (1,5,1) -1.965645E-09 (1,5,3) 1.819105E-09 (1,6,2) -9.227961E-11
(1,5,3): (1,4,3) -3.152982E-11 (1,5,2) -1.819105E-09 (1,5,4) 1.447649E-09 (1,6,3) -1.978559E-10
(1,5,4): (1,4,4) -2.415330E-11 (1,5,3) -1.447649E-09 (1,5,5) 8.705339E-10 (1,6,4) -3.063976E-10
(1,5,5): (1,4,5) -1.324256E-12 (1,5,4) -8.705339E-10 (1,5,6) 1.512492E-10 (1,6,5) -4.001399E-10
(1,5,6): (1,4,6) 2.798478E-11 (1,5,5) -1.512492E-10 (1,5,7) -6.292777E-10 (1,6,6) -4.570204E-10
(1,5,7): (1,4,7) 5.444537E-11 (1,5,6) 6.292777E-10 (1,5,8) -1.368482E-09 (1,6,7) -4.563544E-10
(1,5,8): (1,4,8) 6.588902E-11 (1,5,7) 1.368482E-09 (1,5,9) -1.957156E-09 (1,6,8) -3.825605E-10
(1,5,9): (1,4,9) 5.036634E-11 (1,5,8) 1.957156E-09 (1,5,10) -2.299267E-09 (1,6,9) -2.288127E-10
(1,5,10): (1,4,10) 0.00000 (1,5,9) 2.299267E-09 (1,6,10) 0.00000
(1,6,1): (1,5,1) 0.00000 (1,6,2) 1.873366E-09 (1,7,1) 0.00000
(1,6,2): (1,5,2) 9.227961E-11 (1,6,1) -1.873366E-09 (1,6,3) 1.713529E-09 (1,7,2) -2.553772E-10
(1,6,3): (1,5,3) 1.978559E-10 (1,6,2) -1.713529E-09 (1,6,4) 1.339108E-09 (1,7,3) -5.228517E-10
(1,6,4): (1,5,4) 3.063976E-10 (1,6,3) -1.339108E-09 (1,6,5) 7.767915E-10 (1,7,4) -7.676682E-10
(1,6,5): (1,5,5) 4.001399E-10 (1,6,4) -7.767915E-10 (1,6,6) 9.436868E-11 (1,7,5) -9.486633E-10
(1,6,6): (1,5,6) 4.570204E-10 (1,6,5) -9.436868E-11 (1,6,7) -6.286116E-10 (1,7,6) -1.028565E-09
(1,6,7): (1,5,7) 4.563544E-10 (1,6,6) 6.286116E-10 (1,6,8) -1.294688E-09 (1,7,7) -9.783529E-10
(1,6,8): (1,5,8) 3.825605E-10 (1,6,7) 1.294688E-09 (1,6,9) -1.803408E-09 (1,7,8) -7.836152E-10
(1,6,9): (1,5,9) 2.288127E-10 (1,6,8) 1.803408E-09 (1,6,10) -2.070455E-09 (1,7,9) -4.490271E-10
(1,6,10): (1,5,10) 0.00000 (1,6,9) 2.070455E-09 (1,7,10) 0.00000
(1,7,1): (1,6,1) 0.00000 (1,7,2) 1.617988E-09 (1,8,1) 0.00000
(1,7,2): (1,6,2) 2.553772E-10 (1,7,1) -1.617988E-09 (1,7,3) 1.446055E-09 (1,8,2) -4.513419E-10
(1,7,3): (1,6,3) 5.228517E-10 (1,7,2) -1.446055E-09 (1,7,4) 1.094291E-09 (1,8,3) -9.042900E-10
(1,7,4): (1,6,4) 7.676682E-10 (1,7,3) -1.094291E-09 (1,7,5) 5.957965E-10 (1,8,4) -1.298100E-09
(1,7,5): (1,6,5) 9.486633E-10 (1,7,4) -5.957965E-10 (1,7,6) 1.446739E-11 (1,8,5) -1.566352E-09
(1,7,6): (1,6,6) 1.028565E-09 (1,7,5) -1.446739E-11 (1,7,7) -5.783999E-10 (1,8,6) -1.657351E-09
(1,7,7): (1,6,7) 9.783529E-10 (1,7,6) 5.783999E-10 (1,7,8) -1.099950E-09 (1,8,7) -1.538677E-09
(1,7,8): (1,6,8) 7.836152E-10 (1,7,7) 1.099950E-09 (1,7,9) -1.468820E-09 (1,8,8) -1.203460E-09
(1,7,9): (1,6,9) 4.490271E-10 (1,7,8) 1.468820E-09 (1,7,10) -1.621427E-09 (1,8,9) -6.737935E-10
(1,7,10): (1,6,10) 0.00000 (1,7,9) 1.621427E-09 (1,8,10) 0.00000
(1,8,1): (1,7,1) 0.00000 (1,8,2) 1.166647E-09 (1,9,1) 0.00000
(1,8,2): (1,7,2) 4.513419E-10 (1,8,1) -1.166647E-09 (1,8,3) 9.931064E-10 (1,9,2) -6.493643E-10
(1,8,3): (1,7,3) 9.042900E-10 (1,8,2) -9.931064E-10 (1,8,4) 7.004811E-10 (1,9,3) -1.279973E-09
(1,8,4): (1,7,4) 1.298100E-09 (1,8,3) -7.004811E-10 (1,8,5) 3.275444E-10 (1,9,4) -1.806735E-09
(1,8,5): (1,7,5) 1.566352E-09 (1,8,4) -3.275444E-10 (1,8,6) -7.653171E-11 (1,9,5) -2.142891E-09
(1,8,6): (1,7,6) 1.657351E-09 (1,8,5) 7.653171E-11 (1,8,7) -4.597252E-10 (1,9,6) -2.227822E-09
(1,8,7): (1,7,7) 1.538677E-09 (1,8,6) 4.597252E-10 (1,8,8) -7.647335E-10 (1,9,7) -2.031760E-09
(1,8,8): (1,7,8) 1.203460E-09 (1,8,7) 7.647335E-10 (1,8,9) -9.391541E-10 (1,9,8) -1.560967E-09
(1,8,9): (1,7,9) 6.737935E-10 (1,8,8) 9.391541E-10 (1,8,10) -9.476339E-10 (1,9,9) -8.585988E-10
(1,8,10): (1,7,10) 0.00000 (1,8,9) 9.476339E-10 (1,9,10) 0.00000
(1,9,1): (1,8,1) 0.00000 (1,9,2) 5.172823E-10 (1,10,1) 0.00000
(1,9,2): (1,8,2) 6.493643E-10 (1,9,1) -5.172823E-10 (1,9,3) 3.624977E-10 (1,10,2) -8.102557E-10
(1,9,3): (1,8,3) 1.279973E-09 (1,9,2) -3.624977E-10 (1,9,4) 1.737188E-10 (1,10,3) -1.574539E-09
(1,9,4): (1,8,4) 1.806735E-09 (1,9,3) -1.737188E-10 (1,9,5) -8.611170E-12 (1,10,4) -2.189064E-09
(1,9,5): (1,8,5) 2.142891E-09 (1,9,4) 8.611170E-12 (1,9,6) -1.614629E-10 (1,10,5) -2.556513E-09
(1,9,6): (1,8,6) 2.227822E-09 (1,9,5) 1.614629E-10 (1,9,7) -2.636633E-10 (1,10,6) -2.616430E-09
(1,9,7): (1,8,7) 2.031760E-09 (1,9,6) 2.636633E-10 (1,9,8) -2.939403E-10 (1,10,7) -2.348427E-09
(1,9,8): (1,8,8) 1.560967E-09 (1,9,7) 2.939403E-10 (1,9,9) -2.367860E-10 (1,10,8) -1.775197E-09
(1,9,9): (1,8,9) 8.585988E-10 (1,9,8) 2.367860E-10 (1,9,10) -8.903514E-11 (1,10,9) -9.605559E-10
(1,9,10): (1,8,10) 0.00000 (1,9,9) 8.903514E-11 (1,10,10) 0.00000
(1,10,1): (1,9,1) 0.00000 (1,10,2) -2.929735E-10 (1,11,1) 0.00000
(1,10,2): (1,9,2) 8.102557E-10 (1,10,1) 2.929735E-10 (1,10,3) -4.017859E-10 (1,11,2) -8.957646E-10
(1,10,3): (1,9,3) 1.574539E-09 (1,10,2) 4.017859E-10 (1,10,4) -4.408055E-10 (1,11,3) -1.716009E-09
(1,10,4): (1,9,4) 2.189064E-09 (1,10,3) 4.408055E-10 (1,10,5) -3.760604E-10 (1,11,4) -2.348601E-09
(1,10,5): (1,9,5) 2.556513E-09 (1,10,4) 3.760604E-10 (1,10,6) -2.213795E-10 (1,11,5) -2.699053E-09
(1,10,6): (1,9,6) 2.616430E-09 (1,10,5) 2.213795E-10 (1,10,7) 4.339012E-12 (1,11,6) -2.717692E-09
(1,10,7): (1,9,7) 2.348427E-09 (1,10,6) -4.339012E-12 (1,10,8) 2.792903E-10 (1,11,7) -2.399583E-09
(1,10,8): (1,9,8) 1.775197E-09 (1,10,7) -2.792903E-10 (1,10,9) 5.778548E-10 (1,11,8) -1.783618E-09
(1,10,9): (1,9,9) 9.605559E-10 (1,10,8) -5.778548E-10 (1,10,10) 8.715207E-10 (1,11,9) -9.482848E-10
(1,10,10): (1,9,10) 0.00000 (1,10,9) -8.715207E-10 (1,11,10) 0.00000
(1,11,1): (1,10,1) 0.00000 (1,11,2) -1.188738E-09 (1,12,1) 0.00000
(1,11,2): (1,10,2) 8.957646E-10 (1,11,1) 1.188738E-09 (1,11,3) -1.222031E-09 (1,12,2) -8.774487E-10
(1,11,3): (1,10,3) 1.716009E-09 (1,11,2) 1.222031E-09 (1,11,4) -1.073397E-09 (1,12,3) -1.652421E-09
(1,11,4): (1,10,4) 2.348601E-09 (1,11,3) 1.073397E-09 (1,11,5) -7.265131E-10 (1,12,4) -2.219110E-09
(1,11,5): (1,10,5) 2.699053E-09 (1,11,4) 7.265131E-10 (1,11,6) -2.400184E-10 (1,12,5) -2.501397E-09
(1,11,6): (1,10,6) 2.717692E-09 (1,11,5) 2.400184E-10 (1,11,7) 3.224479E-10 (1,12,6) -2.469631E-09
(1,11,7): (1,10,7) 2.399583E-09 (1,11,6) -3.224479E-10 (1,11,8) 8.952553E-10 (1,12,7) -2.137211E-09
(1,11,8): (1,10,8) 1.783618E-09 (1,11,7) -8.952553E-10 (1,11,9) 1.413188E-09 (1,12,8) -1.555643E-09
(1,11,9): (1,10,9) 9.482848E-10 (1,11,8) -1.413188E-09 (1,11,10) 1.819806E-09 (1,12,9) -8.077529E-10
(1,11,10): (1,10,10) 0.00000 (1,11,9) -1.819806E-09 (1,12,10) 0.00000
(1,12,1): (1,11,1) 0.00000 (1,12,2) -2.066187E-09 (1,13,1) 0.00000
(1,12,2): (1,11,2) 8.774487E-10 (1,12,1) 2.066187E-09 (1,12,3) -1.997003E-09 (1,13,2) -7.445199E-10
(1,12,3): (1,11,3) 1.652421E-09 (1,12,2) 1.997003E-09 (1,12,4) -1.640086E-09 (1,13,3) -1.365720E-09
(1,12,4): (1,11,4) 2.219110E-09 (1,12,3) 1.640086E-09 (1,12,5) -1.008800E-09 (1,13,4) -1.782049E-09
(1,12,5): (1,11,5) 2.501397E-09 (1,12,4) 1.008800E-09 (1,12,6) -2.082528E-10 (1,13,5) -1.951651E-09
(1,12,6): (1,11,6) 2.469631E-09 (1,12,5) 2.082528E-10 (1,12,7) 6.548686E-10 (1,13,6) -1.870489E-09
(1,12,7): (1,11,7) 2.137211E-09 (1,12,6) -6.548686E-10 (1,12,8) 1.476823E-09 (1,13,7) -1.566674E-09
(1,12,8): (1,11,8) 1.555643E-09 (1,12,7) -1.476823E-09 (1,12,9) 2.161079E-09 (1,13,8) -1.098238E-09
(1,12,9): (1,11,9) 8.077529E-10 (1,12,8) -2.161079E-09 (1,12,10) 2.627558E-09 (1,13,9) -5.437002E-10
(1,12,10): (1,11,10) 0.00000 (1,12,9) -2.627558E-09 (1,13,10) 0.00000
(1,13,1): (1,12,1) 0.00000 (1,13,2) -2.810707E-09 (1,14,1) 0.00000
(1,13,2): (1,12,2) 7.445199E-10 (1,13,1) 2.810707E-09 (1,13,3) -2.618203E-09 (1,14,2) -5.109281E-10
(1,13,3): (1,12,3) 1.365720E-09 (1,13,2) 2.618203E-09 (1,13,4) -2.056415E-09 (1,14,3) -8.796044E-10
(1,13,4): (1,12,4) 1.782049E-09 (1,13,3) 2.056415E-09 (1,13,5) -1.178403E-09 (1,14,4) -1.073139E-09
(1,13,5): (1,12,5) 1.951651E-09 (1,13,4) 1.178403E-09 (1,13,6) -1.270906E-10 (1,14,5) -1.098032E-09
(1,13,6): (1,12,6) 1.870489E-09 (1,13,5) 1.270906E-10 (1,13,7) 9.586839E-10 (1,14,6) -9.787779E-10
(1,13,7): (1,12,7) 1.566674E-09 (1,13,6) -9.586839E-10 (1,13,8) 1.945258E-09 (1,14,7) -7.526898E-10
(1,13,8): (1,12,8) 1.098238E-09 (1,13,7) -1.945258E-09 (1,13,9) 2.715617E-09 (1,14,8) -4.717032E-10
(1,13,9): (1,12,9) 5.437002E-10 (1,13,8) -2.715617E-09 (1,13,10) 3.171259E-09 (1,14,9) -1.976783E-10
(1,13,10): (1,12,10) 0.00000 (1,13,9) -3.171259E-09 (1,14,10) 0.00000
(1,14,1): (1,13,1) 0.00000 (1,14,2) -3.321635E-09 (1,15,1) 0.00000
(1,14,2): (1,13,2) 5.109281E-10 (1,14,1) 3.321635E-09 (1,14,3) -2.986880E-09 (1,15,2) -2.247230E-10
(1,14,3): (1,13,3) 8.796044E-10 (1,14,2) 2.986880E-09 (1,14,4) -2.249949E-09 (1,15,3) -2.552191E-10
(1,14,4): (1,13,4) 1.073139E-09 (1,14,3) 2.249949E-09 (1,14,5) -1.203296E-09 (1,15,4) -1.745083E-10
(1,14,5): (1,13,5) 1.098032E-09 (1,14,4) 1.203296E-09 (1,14,6) -7.836345E-12 (1,15,5) -5.314046E-11
(1,14,6): (1,13,6) 9.787779E-10 (1,14,5) 7.836345E-12 (1,14,7) 1.184772E-09 (1,15,6) 7.463813E-11
(1,14,7): (1,13,7) 7.526898E-10 (1,14,6) -1.184772E-09 (1,14,8) 2.226245E-09 (1,15,7) 1.814764E-10
(1,14,8): (1,13,8) 4.717032E-10 (1,14,7) -2.226245E-09 (1,14,9) 2.989642E-09 (1,15,8) 2.400672E-10
(1,14,9): (1,13,9) 1.976783E-10 (1,14,8) -2.989642E-09 (1,14,10) 3.368937E-09 (1,15,9) 2.079226E-10
(1,14,10): (1,13,10) 0.00000 (1,14,9) -3.368937E-09 (1,15,10) 0.00000
(1,15,1): (1,14,1) 0.00000 (1,15,2) -3.546358E-09
(1,15,2): (1,14,2) 2.247230E-10 (1,15,1) 3.546358E-09 (1,15,3) -3.017376E-09
(1,15,3): (1,14,3) 2.552191E-10 (1,15,2) 3.017376E-09 (1,15,4) -2.169238E-09
(1,15,4): (1,14,4) 1.745083E-10 (1,15,3) 2.169238E-09 (1,15,5) -1.081928E-09
(1,15,5): (1,14,5) 5.314046E-11 (1,15,4) 1.081928E-09 (1,15,6) 1.199423E-10
(1,15,6): (1,14,6) -7.463813E-11 (1,15,5) -1.199423E-10 (1,15,7) 1.291610E-09
(1,15,7): (1,14,7) -1.814764E-10 (1,15,6) -1.291610E-09 (1,15,8) 2.284836E-09
(1,15,8): (1,14,8) -2.400672E-10 (1,15,7) -2.284836E-09 (1,15,9) 2.957497E-09
(1,15,9): (1,14,9) -2.079226E-10 (1,15,8) -2.957497E-09 (1,15,10) 3.161014E-09
(1,15,10): (1,14,10) 0.00000 (1,15,9) -3.161014E-09

 API PACKAGE (MAR) FLOW RATES   PERIOD      1   STEP        1
 -----------------------------------------------
   NUMBER   CELLID                    RATE      
 -----------------------------------------------
     1      (1,6,5)               0.0000000     
     2      (1,6,6)               0.0000000     
     3      (1,6,7)               0.0000000     
     4      (1,10,5)              0.0000000     
     5      (1,10,6)              0.0000000     
     6      (1,10,7)              0.0000000     
 -----------------------------------------------




 CHD PACKAGE (CHD_0) FLOW RATES   PERIOD      1   STEP        1
 ----------------------------------------------------------------------------------------
   NUMBER   CELLID                    RATE       NAME                                    
 ----------------------------------------------------------------------------------------
     1      (1,1,1)              -1.67322907E-09 CHD                                     
     2      (1,1,10)             -2.11798547E-09 CHD                                     
     3      (1,2,1)              -1.78503253E-09 CHD                                     
     4      (1,2,10)             -2.18775972E-09 CHD                                     
     5      (1,3,1)              -1.87253079E-09 CHD                                     
     6      (1,3,10)             -2.28754544E-09 CHD                                     
     7      (1,4,1)              -1.94506256E-09 CHD                                     
     8      (1,4,10)             -2.34963361E-09 CHD                                     
     9      (1,5,1)              -1.96564530E-09 CHD                                     
     10     (1,5,10)             -2.29926726E-09 CHD                                     
     11     (1,6,1)              -1.87336569E-09 CHD                                     
     12     (1,6,10)             -2.07045454E-09 CHD                                     
     13     (1,7,1)              -1.61798847E-09 CHD                                     
     14     (1,7,10)             -1.62142746E-09 CHD                                     
     15     (1,8,1)              -1.16664657E-09 CHD                                     
     16     (1,8,10)             -9.47633917E-10 CHD                                     
     17     (1,9,1)              -5.17282276E-10 CHD                                     
     18     (1,9,10)             -8.90351351E-11 CHD                                     
     19     (1,10,1)              2.92973454E-10 CHD                                     
     20     (1,10,10)             8.71520742E-10 CHD                                     
     21     (1,11,1)              1.18873809E-09 CHD                                     
     22     (1,11,10)             1.81980559E-09 CHD                                     
     23     (1,12,1)              2.06618678E-09 CHD                                     
     24     (1,12,10)             2.62755848E-09 CHD                                     
     25     (1,13,1)              2.81070664E-09 CHD                                     
     26     (1,13,10)             3.17125867E-09 CHD                                     
     27     (1,14,1)              3.32163475E-09 CHD                                     
     28     (1,14,10)             3.36893695E-09 CHD                                     
     29     (1,15,1)              3.54635778E-09 CHD                                     
     30     (1,15,10)             3.16101435E-09 CHD                                     
 ----------------------------------------------------------------------------------------



1
  HEAD IN LAYER   1 AT END OF TIME STEP   1 IN STRESS PERIOD    1
  ---------------------------------------------------------------------------

            1           2           3           4           5           6           7           8           9          10
 ........................................................................................................................
   1    0.000      1.6732E-10  3.2302E-10  4.4937E-10  5.2846E-10  5.4736E-10  4.9900E-10  3.8401E-10  2.1180E-10   0.000    
   2    0.000      1.7850E-10  3.4366E-10  4.7685E-10  5.5917E-10  5.7719E-10  5.2396E-10  4.0078E-10  2.1878E-10   0.000    
   3    0.000      1.8725E-10  3.6077E-10  5.0094E-10  5.8771E-10  6.0635E-10  5.4964E-10  4.1957E-10  2.2875E-10   0.000    
   4    0.000      1.9451E-10  3.7532E-10  5.2082E-10  6.1016E-10  6.2822E-10  5.6794E-10  4.3223E-10  2.3496E-10   0.000    
   5    0.000      1.9656E-10  3.7848E-10  5.2324E-10  6.1029E-10  6.2542E-10  5.6249E-10  4.2564E-10  2.2993E-10   0.000    
   6    0.000      1.8734E-10  3.5869E-10  4.9260E-10  5.7028E-10  5.7972E-10  5.1686E-10  3.8739E-10  2.0705E-10   0.000    
   7    0.000      1.6180E-10  3.0640E-10  4.1583E-10  4.7541E-10  4.7686E-10  4.1902E-10  3.0902E-10  1.6214E-10   0.000    
   8    0.000      1.1666E-10  2.1598E-10  2.8602E-10  3.1878E-10  3.1112E-10  2.6515E-10  1.8868E-10  9.4763E-11   0.000    
   9    0.000      5.1728E-11  8.7978E-11  1.0535E-10  1.0449E-10  8.8342E-11  6.1976E-11  3.2582E-11  8.9035E-12   0.000    
  10    0.000     -2.9297E-11 -6.9476E-11 -1.1356E-10 -1.5116E-10 -1.7330E-10 -1.7287E-10 -1.4494E-10 -8.7152E-11   0.000    
  11    0.000     -1.1887E-10 -2.4108E-10 -3.4842E-10 -4.2107E-10 -4.4507E-10 -4.1282E-10 -3.2330E-10 -1.8198E-10   0.000    
  12    0.000     -2.0662E-10 -4.0632E-10 -5.7033E-10 -6.7121E-10 -6.9203E-10 -6.2655E-10 -4.7886E-10 -2.6276E-10   0.000    
  13    0.000     -2.8107E-10 -5.4289E-10 -7.4853E-10 -8.6637E-10 -8.7908E-10 -7.8321E-10 -5.8869E-10 -3.1713E-10   0.000    
  14    0.000     -3.3216E-10 -6.3085E-10 -8.5585E-10 -9.7618E-10 -9.7696E-10 -8.5848E-10 -6.3586E-10 -3.3689E-10   0.000    
  15    0.000     -3.5464E-10 -6.5637E-10 -8.7330E-10 -9.8149E-10 -9.6950E-10 -8.4033E-10 -6.1185E-10 -3.1610E-10   0.000    

 HEAD WILL BE SAVED ON UNIT 1043 AT END OF TIME STEP    1, STRESS PERIOD    1


  VOLUME BUDGET FOR ENTIRE MODEL AT END OF TIME STEP    1, STRESS PERIOD   1
  ---------------------------------------------------------------------------------------------------

     CUMULATIVE VOLUME      L**3       RATES FOR THIS TIME STEP      L**3/T          PACKAGE NAME    
     ------------------                 ------------------------                     ----------------

           IN:                                      IN:
           ---                                      ---
              STO-SS =           0.0000                STO-SS =           0.0000     STORAGE                          
              STO-SY =           0.0000                STO-SY =           0.0000     STORAGE                          
                 WEL =           0.0000                   WEL =           0.0000     WEL-1                            
                 API =           0.0000                   API =           0.0000     MAR                              
                 CHD =       2.8247E-08                   CHD =       2.8247E-08     CHD_0                            

            TOTAL IN =       2.8247E-08              TOTAL IN =       2.8247E-08

          OUT:                                     OUT:
          ----                                     ----
              STO-SS =           0.0000                STO-SS =           0.0000     STORAGE                          
              STO-SY =           0.0000                STO-SY =           0.0000     STORAGE                          
                 WEL =           0.0000                   WEL =           0.0000     WEL-1                            
                 API =           0.0000                   API =           0.0000     MAR                              
                 CHD =       3.0388E-08                   CHD =       3.0388E-08     CHD_0                            

           TOTAL OUT =       3.0388E-08             TOTAL OUT =       3.0388E-08

            IN - OUT =      -2.1408E-09              IN - OUT =      -2.1408E-09

 PERCENT DISCREPANCY =          -7.30     PERCENT DISCREPANCY =          -7.30




         TIME SUMMARY AT END OF TIME STEP    1 IN STRESS PERIOD    1
                    SECONDS     MINUTES      HOURS       DAYS        YEARS
                    -----------------------------------------------------------
   TIME STEP LENGTH  86400.      1440.0      24.000      1.0000     2.73785E-03
 STRESS PERIOD TIME  86400.      1440.0      24.000      1.0000     2.73785E-03
         TOTAL TIME  86400.      1440.0      24.000      1.0000     2.73785E-03


end timestep


start timestep kper="2" kstp="1" mode="normal"


 END OF FILE DETECTED IN OUTPUT CONTROL.
 CURRENT OUTPUT CONTROL SETTINGS WILL BE 
 REPEATED UNTIL THE END OF THE SIMULATION.

 OUTPUT CONTROL FOR STRESS PERIOD 2 IS REPEATED USING SETTINGS FROM A PREVIOUS STRESS PERIOD.


 PROCESSING STORAGE PERIOD DATA
 END PROCESSING STORAGE PERIOD DATA


 STRESS PERIOD 2 IS TRANSIENT

 UBDSV1 SAVING           STO-SS ON UNIT   1042 AT TIME STEP      1, STRESS PERIOD      2
 UBDSV1 SAVING           STO-SY ON UNIT   1042 AT TIME STEP      1, STRESS PERIOD      2
 UBDSV1 SAVING     FLOW-JA-FACE ON UNIT   1042 AT TIME STEP      1, STRESS PERIOD      2
 UBDSV06 SAVING       DATA-SPDIS IN MODEL GWF              PACKAGE NPF             CONNECTED TO MODEL GWF              PACKAGE NPF              ON UNIT   1042 AT TIME STEP      1, STRESS PERIOD      2
 UBDSV06 SAVING              WEL IN MODEL GWF              PACKAGE GWF             CONNECTED TO MODEL GWF              PACKAGE WEL-1            ON UNIT   1042 AT TIME STEP      1, STRESS PERIOD      2
 UBDSV06 SAVING              API IN MODEL GWF              PACKAGE GWF             CONNECTED TO MODEL GWF              PACKAGE MAR              ON UNIT   1042 AT TIME STEP      1, STRESS PERIOD      2
 UBDSV06 SAVING              CHD IN MODEL GWF              PACKAGE GWF             CONNECTED TO MODEL GWF              PACKAGE CHD_0            ON UNIT   1042 AT TIME STEP      1, STRESS PERIOD      2

    CALCULATED INTERCELL FLOW FOR PERIOD 2 STEP 1
(1,1,1): (1,1,2) 2.722709E-09 (1,2,1) 1.425969E-09
(1,1,2): (1,1,1) -2.722709E-09 (1,1,3) 1.167884E-08 (1,2,2) 1.619267E-08
(1,1,3): (1,1,2) -1.167884E-08 (1,1,4) 7.041102E-08 (1,2,3) 1.689544E-07
(1,1,4): (1,1,3) -7.041102E-08 (1,1,5) 2.804709E-07 (1,2,4) 1.401271E-06
(1,1,5): (1,1,4) -2.804709E-07 (1,1,6) 5.765209E-08 (1,2,5) 7.430553E-06
(1,1,6): (1,1,5) -5.765209E-08 (1,1,7) -5.795246E-08 (1,2,6) 8.473176E-06
(1,1,7): (1,1,6) 5.795246E-08 (1,1,8) -2.808330E-07 (1,2,7) 7.430500E-06
(1,1,8): (1,1,7) 2.808330E-07 (1,1,9) -7.085745E-08 (1,2,8) 1.401179E-06
(1,1,9): (1,1,8) 7.085745E-08 (1,1,10) -1.202900E-08 (1,2,9) 1.689270E-07
(1,1,10): (1,1,9) 1.202900E-08 (1,2,10) 1.740687E-08
(1,2,1): (1,1,1) -1.425969E-09 (1,2,2) 1.748941E-08 (1,3,1) 1.661870E-08
(1,2,2): (1,1,2) -1.619267E-08 (1,2,1) -1.748941E-08 (1,2,3) 1.644406E-07 (1,3,2) 2.161691E-07
(1,2,3): (1,1,3) -1.689544E-07 (1,2,2) -1.644406E-07 (1,2,4) 1.302728E-06 (1,3,3) 2.635005E-06
(1,2,4): (1,1,4) -1.401271E-06 (1,2,3) -1.302728E-06 (1,2,5) 6.309752E-06 (1,3,4) 2.603955E-05
(1,2,5): (1,1,5) -7.430553E-06 (1,2,4) -6.309752E-06 (1,2,6) 1.100276E-06 (1,3,5) 1.685271E-04
(1,2,6): (1,1,6) -8.473176E-06 (1,2,5) -1.100276E-06 (1,2,7) -1.100629E-06 (1,3,6) 1.885741E-04
(1,2,7): (1,1,7) -7.430500E-06 (1,2,6) 1.100629E-06 (1,2,8) -6.310153E-06 (1,3,7) 1.685271E-04
(1,2,8): (1,1,8) -1.401179E-06 (1,2,7) 6.310153E-06 (1,2,9) -1.303110E-06 (1,3,8) 2.603956E-05
(1,2,9): (1,1,9) -1.689270E-07 (1,2,8) 1.303110E-06 (1,2,10) -1.635491E-07 (1,3,9) 2.635958E-06
(1,2,10): (1,1,10) -1.740687E-08 (1,2,9) 1.635491E-07 (1,3,10) 2.316053E-07
(1,3,1): (1,2,1) -1.661870E-08 (1,3,2) 2.170398E-07 (1,4,1) 1.648018E-07
(1,3,2): (1,2,2) -2.161691E-07 (1,3,1) -2.170398E-07 (1,3,3) 2.583276E-06 (1,4,2) 2.520656E-06
(1,3,3): (1,2,3) -2.635005E-06 (1,3,2) -2.583276E-06 (1,3,4) 2.470727E-05 (1,4,3) 3.683842E-05
(1,3,4): (1,2,4) -2.603955E-05 (1,3,3) -2.470727E-05 (1,3,5) 1.487973E-04 (1,4,4) 4.526418E-04
(1,3,5): (1,2,5) -1.685271E-04 (1,3,4) -1.487973E-04 (1,3,6) 2.114723E-05 (1,4,5) 3.824283E-03
(1,3,6): (1,2,6) -1.885741E-04 (1,3,5) -2.114723E-05 (1,3,7) -2.114761E-05 (1,4,6) 4.182127E-03
(1,3,7): (1,2,7) -1.685271E-04 (1,3,6) 2.114761E-05 (1,3,8) -1.487977E-04 (1,4,7) 3.824283E-03
(1,3,8): (1,2,8) -2.603956E-05 (1,3,7) 1.487977E-04 (1,3,9) -2.470671E-05 (1,4,8) 4.526422E-04
(1,3,9): (1,2,9) -2.635958E-06 (1,3,8) 2.470671E-05 (1,3,10) -2.567902E-06 (1,4,9) 3.684732E-05
(1,3,10): (1,2,10) -2.316053E-07 (1,3,9) 2.567902E-06 (1,4,10) 2.675878E-06
(1,4,1): (1,3,1) -1.648018E-07 (1,4,2) 2.572894E-06 (1,5,1) 1.254817E-06
(1,4,2): (1,3,2) -2.520656E-06 (1,4,1) -2.572894E-06 (1,4,3) 3.690104E-05 (1,5,2) 2.330017E-05
(1,4,3): (1,3,3) -3.683842E-05 (1,4,2) -3.690104E-05 (1,4,4) 4.405106E-04 (1,5,3) 4.266906E-04
(1,4,4): (1,3,4) -4.526418E-04 (1,4,3) -4.405106E-04 (1,4,5) 3.520429E-03 (1,5,4) 6.980740E-03
(1,4,5): (1,3,5) -3.824283E-03 (1,4,4) -3.520429E-03 (1,4,6) 3.789774E-04 (1,5,5) 8.701477E-02
(1,4,6): (1,3,6) -4.182127E-03 (1,4,5) -3.789774E-04 (1,4,7) -3.789778E-04 (1,5,6) 9.257212E-02
(1,4,7): (1,3,7) -3.824283E-03 (1,4,6) 3.789778E-04 (1,4,8) -3.520429E-03 (1,5,7) 8.701477E-02
(1,4,8): (1,3,8) -4.526422E-04 (1,4,7) 3.520429E-03 (1,4,9) -4.405015E-04 (1,5,8) 6.980742E-03
(1,4,9): (1,3,9) -3.684732E-05 (1,4,8) 4.405015E-04 (1,4,10) -3.673934E-05 (1,5,9) 4.267494E-04
(1,4,10): (1,3,10) -2.675878E-06 (1,4,9) 3.673934E-05 (1,5,10) 2.449309E-05
(1,5,1): (1,4,1) -1.254817E-06 (1,5,2) 2.461824E-05 (1,6,1) 5.408399E-06
(1,5,2): (1,4,2) -2.330017E-05 (1,5,1) -2.461824E-05 (1,5,3) 4.402915E-04 (1,6,2) 1.289708E-04
(1,5,3): (1,4,3) -4.266906E-04 (1,5,2) -4.402915E-04 (1,5,4) 6.994560E-03 (1,6,3) 3.203930E-03
(1,5,4): (1,4,4) -6.980740E-03 (1,5,3) -6.994560E-03 (1,5,5) 8.355169E-02 (1,6,4) 7.970595E-02
(1,5,5): (1,4,5) -8.701477E-02 (1,5,4) -8.355169E-02 (1,5,6) 5.931533E-03 (1,6,5) 1.98427
(1,5,6): (1,4,6) -9.257212E-02 (1,5,5) -5.931533E-03 (1,5,7) -5.931533E-03 (1,6,6) 2.04265
(1,5,7): (1,4,7) -8.701477E-02 (1,5,6) 5.931533E-03 (1,5,8) -8.355169E-02 (1,6,7) 1.98427
(1,5,8): (1,4,8) -6.980742E-03 (1,5,7) 8.355169E-02 (1,5,9) -6.994495E-03 (1,6,8) 7.970596E-02
(1,5,9): (1,4,9) -4.267494E-04 (1,5,8) 6.994495E-03 (1,5,10) -4.389957E-04 (1,6,9) 3.204140E-03
(1,5,10): (1,4,10) -2.449309E-05 (1,5,9) 4.389957E-04 (1,6,10) 1.341609E-04
(1,6,1): (1,5,1) -5.408399E-06 (1,6,2) 1.481807E-04 (1,7,1) -5.778288E-06
(1,6,2): (1,5,2) -1.289708E-04 (1,6,1) -1.481807E-04 (1,6,3) 3.515261E-03 (1,7,2) -1.360588E-04
(1,6,3): (1,5,3) -3.203930E-03 (1,6,2) -3.515261E-03 (1,6,4) 8.349948E-02 (1,7,3) -3.340414E-03
(1,6,4): (1,5,4) -7.970595E-02 (1,6,3) -8.349948E-02 (1,6,5) 1.98819 (1,7,4) -8.216912E-02
(1,6,5): (1,5,5) -1.98427 (1,6,4) -1.98819 (1,6,6) 6.322145E-02 (1,7,5) -2.02444
(1,6,6): (1,5,6) -2.04265 (1,6,5) -6.322145E-02 (1,6,7) -6.322145E-02 (1,7,6) -2.52550
(1,6,7): (1,5,7) -1.98427 (1,6,6) 6.322145E-02 (1,6,8) -1.98819 (1,7,7) -2.02444
(1,6,8): (1,5,8) -7.970596E-02 (1,6,7) 1.98819 (1,6,9) -8.349921E-02 (1,7,8) -8.216913E-02
(1,6,9): (1,5,9) -3.204140E-03 (1,6,8) 8.349921E-02 (1,6,10) -3.508984E-03 (1,7,9) -3.340641E-03
(1,6,10): (1,5,10) -1.341609E-04 (1,6,9) 3.508984E-03 (1,7,10) -1.416006E-04
(1,7,1): (1,6,1) 5.778288E-06 (1,7,2) 1.790020E-05 (1,8,1) -2.308147E-06
(1,7,2): (1,6,2) 1.360588E-04 (1,7,1) -1.790020E-05 (1,7,3) 3.108995E-04 (1,8,2) -4.953682E-05
(1,7,3): (1,6,3) 3.340414E-03 (1,7,2) -3.108995E-04 (1,7,4) 4.669725E-03 (1,8,3) -1.098662E-03
(1,7,4): (1,6,4) 8.216912E-02 (1,7,3) -4.669725E-03 (1,7,5) 4.659268E-02 (1,8,4) -2.405490E-02
(1,7,5): (1,6,5) 2.02444 (1,7,4) -4.659268E-02 (1,7,6) -0.427862 (1,8,5) -0.518107
(1,7,6): (1,6,6) 2.52550 (1,7,5) 0.427862 (1,7,7) 0.427862 (1,8,6) -10.9065
(1,7,7): (1,6,7) 2.02444 (1,7,6) -0.427862 (1,7,8) -4.659267E-02 (1,8,7) -0.518107
(1,7,8): (1,6,8) 8.216913E-02 (1,7,7) 4.659267E-02 (1,7,9) -4.669676E-03 (1,8,8) -2.405490E-02
(1,7,9): (1,6,9) 3.340641E-03 (1,7,8) 4.669676E-03 (1,7,10) -3.099385E-04 (1,8,9) -1.098760E-03
(1,7,10): (1,6,10) 1.416006E-04 (1,7,9) 3.099385E-04 (1,8,10) -5.174241E-05
(1,8,1): (1,7,1) 2.308147E-06 (1,8,2) -2.932847E-05 (1,9,1) 2.204605E-06
(1,8,2): (1,7,2) 4.953682E-05 (1,8,1) 2.932847E-05 (1,8,3) -7.382230E-04 (1,9,2) 4.765534E-05
(1,8,3): (1,7,3) 1.098662E-03 (1,8,2) 7.382230E-04 (1,8,4) -1.828540E-02 (1,9,3) 1.064933E-03
(1,8,4): (1,7,4) 2.405490E-02 (1,8,3) 1.828540E-02 (1,8,5) -0.447132 (1,9,4) 2.351435E-02
(1,8,5): (1,7,5) 0.518107 (1,8,4) 0.447132 (1,8,6) -10.8068 (1,9,5) 0.511476
(1,8,6): (1,7,6) 10.9065 (1,8,5) 10.8068 (1,8,7) 10.8068 (1,9,6) 10.8986
(1,8,7): (1,7,7) 0.518107 (1,8,6) -10.8068 (1,8,8) 0.447132 (1,9,7) 0.511476
(1,8,8): (1,7,8) 2.405490E-02 (1,8,7) -0.447132 (1,8,9) 1.828536E-02 (1,9,8) 2.351435E-02
(1,8,9): (1,7,9) 1.098760E-03 (1,8,8) -1.828536E-02 (1,8,10) 7.370759E-04 (1,9,9) 1.065026E-03
(1,8,10): (1,7,10) 5.174241E-05 (1,8,9) -7.370759E-04 (1,9,10) 4.976368E-05
(1,9,1): (1,8,1) -2.204605E-06 (1,9,2) 1.612226E-05 (1,10,1) 5.380816E-06
(1,9,2): (1,8,2) -4.765534E-05 (1,9,1) -1.612226E-05 (1,9,3) 2.790520E-04 (1,10,2) 1.266204E-04
(1,9,3): (1,8,3) -1.064933E-03 (1,9,2) -2.790520E-04 (1,9,4) 4.163010E-03 (1,10,3) 3.106683E-03
(1,9,4): (1,8,4) -2.351435E-02 (1,9,3) -4.163010E-03 (1,9,5) 4.053374E-02 (1,10,4) 7.636752E-02
(1,9,5): (1,8,5) -0.511476 (1,9,4) -4.053374E-02 (1,9,6) -0.428322 (1,10,5) 1.88027
(1,9,6): (1,8,6) -10.8986 (1,9,5) 0.428322 (1,9,7) 0.428322 (1,10,6) 2.37506
(1,9,7): (1,8,7) -0.511476 (1,9,6) -0.428322 (1,9,8) -4.053374E-02 (1,10,7) 1.88027
(1,9,8): (1,8,8) -2.351435E-02 (1,9,7) 4.053374E-02 (1,9,9) -4.162965E-03 (1,10,8) 7.636753E-02
(1,9,9): (1,8,9) -1.065026E-03 (1,9,8) 4.162965E-03 (1,9,10) -2.781839E-04 (1,10,9) 3.106894E-03
(1,9,10): (1,8,10) -4.976368E-05 (1,9,9) 2.781839E-04 (1,10,10) 1.317819E-04
(1,10,1): (1,9,1) -5.380816E-06 (1,10,2) 1.373619E-04 (1,11,1) -5.012354E-06
(1,10,2): (1,9,2) -1.266204E-04 (1,10,1) -1.373619E-04 (1,10,3) 3.259119E-03 (1,11,2) -1.195518E-04
(1,10,3): (1,9,3) -3.106683E-03 (1,10,2) -3.259119E-03 (1,10,4) 7.742462E-02 (1,11,3) -2.970416E-03
(1,10,4): (1,9,4) -7.636752E-02 (1,10,3) -7.742462E-02 (1,10,5) 1.84381 (1,11,4) -7.390669E-02
(1,10,5): (1,9,5) -1.88027 (1,10,4) -1.84381 (1,10,6) 5.728545E-02 (1,11,5) -1.84017
(1,10,6): (1,9,6) -2.37506 (1,10,5) -5.728545E-02 (1,10,7) -5.728545E-02 (1,11,6) -1.89293
(1,10,7): (1,9,7) -1.88027 (1,10,6) 5.728545E-02 (1,10,8) -1.84381 (1,11,7) -1.84017
(1,10,8): (1,9,8) -7.636753E-02 (1,10,7) 1.84381 (1,10,9) -7.742437E-02 (1,11,8) -7.390670E-02
(1,10,9): (1,9,9) -3.106894E-03 (1,10,8) 7.742437E-02 (1,10,10) -3.253301E-03 (1,11,9) -2.970609E-03
(1,10,10): (1,9,10) -1.317819E-04 (1,10,9) 3.253301E-03 (1,11,10) -1.243609E-04
(1,11,1): (1,10,1) 5.012354E-06 (1,11,2) 2.282242E-05 (1,12,1) -1.163363E-06
(1,11,2): (1,10,2) 1.195518E-04 (1,11,1) -2.282242E-05 (1,11,3) 4.082466E-04 (1,12,2) -2.160383E-05
(1,11,3): (1,10,3) 2.970416E-03 (1,11,2) -4.082466E-04 (1,11,4) 6.485853E-03 (1,12,3) -3.956376E-04
(1,11,4): (1,10,4) 7.390669E-02 (1,11,3) -6.485853E-03 (1,11,5) 7.747766E-02 (1,12,4) -6.473020E-03
(1,11,5): (1,10,5) 1.84017 (1,11,4) -7.747766E-02 (1,11,6) 5.442603E-03 (1,12,5) -8.068867E-02
(1,11,6): (1,10,6) 1.89293 (1,11,5) -5.442603E-03 (1,11,7) -5.442603E-03 (1,12,6) -8.578627E-02
(1,11,7): (1,10,7) 1.84017 (1,11,6) 5.442603E-03 (1,11,8) -7.747766E-02 (1,12,7) -8.068867E-02
(1,11,8): (1,10,8) 7.390670E-02 (1,11,7) 7.747766E-02 (1,11,9) -6.485792E-03 (1,12,8) -6.473022E-03
(1,11,9): (1,10,9) 2.970609E-03 (1,11,8) 6.485792E-03 (1,11,10) -4.070444E-04 (1,12,9) -3.956914E-04
(1,11,10): (1,10,10) 1.243609E-04 (1,11,9) 4.070444E-04 (1,12,10) -2.270896E-05
(1,12,1): (1,11,1) 1.163363E-06 (1,12,2) 2.381955E-06 (1,13,1) -1.528310E-07
(1,12,2): (1,11,2) 2.160383E-05 (1,12,1) -2.381955E-06 (1,12,3) 3.421278E-05 (1,13,2) -2.337852E-06
(1,12,3): (1,11,3) 3.956376E-04 (1,12,2) -3.421278E-05 (1,12,4) 4.084695E-04 (1,13,3) -3.415945E-05
(1,12,4): (1,11,4) 6.473020E-03 (1,12,3) -4.084695E-04 (1,12,5) 3.264386E-03 (1,13,4) -4.197222E-04
(1,12,5): (1,11,5) 8.068867E-02 (1,12,4) -3.264386E-03 (1,12,6) 3.490944E-04 (1,13,5) -3.546147E-03
(1,12,6): (1,11,6) 8.578627E-02 (1,12,5) -3.490944E-04 (1,12,7) -3.490939E-04 (1,13,6) -3.875737E-03
(1,12,7): (1,11,7) 8.068867E-02 (1,12,6) 3.490939E-04 (1,12,8) -3.264385E-03 (1,13,7) -3.546147E-03
(1,12,8): (1,11,8) 6.473022E-03 (1,12,7) 3.264385E-03 (1,12,9) -4.084601E-04 (1,13,8) -4.197220E-04
(1,12,9): (1,11,9) 3.956914E-04 (1,12,8) 4.084601E-04 (1,12,10) -3.406196E-05 (1,13,9) -3.416698E-05
(1,12,10): (1,11,10) 2.270896E-05 (1,12,9) 3.406196E-05 (1,13,10) -2.481123E-06
(1,13,1): (1,12,1) 1.528310E-07 (1,13,2) 1.969340E-07 (1,14,1) -1.542888E-08
(1,13,2): (1,12,2) 2.337852E-06 (1,13,1) -1.969340E-07 (1,13,3) 2.391175E-06 (1,14,2) -2.008604E-07
(1,13,3): (1,12,3) 3.415945E-05 (1,13,2) -2.391175E-06 (1,13,4) 2.290683E-05 (1,14,3) -2.444021E-06
(1,13,4): (1,12,4) 4.197222E-04 (1,13,3) -2.290683E-05 (1,13,5) 1.379693E-04 (1,14,4) -2.414634E-05
(1,13,5): (1,12,5) 3.546147E-03 (1,13,4) -1.379693E-04 (1,13,6) 1.951580E-05 (1,14,5) -1.562671E-04
(1,13,6): (1,12,6) 3.875737E-03 (1,13,5) -1.951580E-05 (1,13,7) -1.951497E-05 (1,14,6) -1.747666E-04
(1,13,7): (1,12,7) 3.546147E-03 (1,13,6) 1.951497E-05 (1,13,8) -1.379685E-04 (1,14,7) -1.562668E-04
(1,13,8): (1,12,8) 4.197220E-04 (1,13,7) 1.379685E-04 (1,13,9) -2.290520E-05 (1,14,8) -2.414582E-05
(1,13,9): (1,12,9) 3.416698E-05 (1,13,8) 2.290520E-05 (1,13,10) -2.376102E-06 (1,14,9) -2.444309E-06
(1,13,10): (1,12,10) 2.481123E-06 (1,13,9) 2.376102E-06 (1,14,10) -2.147570E-07
(1,14,1): (1,13,1) 1.542888E-08 (1,14,2) 1.150251E-08 (1,15,1) -1.328393E-09
(1,14,2): (1,13,2) 2.008604E-07 (1,14,1) -1.150251E-08 (1,14,3) 1.480142E-07 (1,15,2) -1.513681E-08
(1,14,3): (1,13,3) 2.444021E-06 (1,14,2) -1.480142E-07 (1,14,4) 1.204512E-06 (1,15,3) -1.567497E-07
(1,14,4): (1,13,4) 2.414634E-05 (1,14,3) -1.204512E-06 (1,14,5) 5.848574E-06 (1,15,4) -1.299300E-06
(1,14,5): (1,13,5) 1.562671E-04 (1,14,4) -5.848574E-06 (1,14,6) 1.016339E-06 (1,15,5) -6.889633E-06
(1,14,6): (1,13,6) 1.747666E-04 (1,14,5) -1.016339E-06 (1,14,7) -1.015175E-06 (1,15,6) -7.852729E-06
(1,14,7): (1,13,7) 1.562668E-04 (1,14,6) 1.015175E-06 (1,14,8) -5.847555E-06 (1,15,7) -6.889408E-06
(1,14,8): (1,13,8) 2.414582E-05 (1,14,7) 5.847555E-06 (1,14,9) -1.203692E-06 (1,15,8) -1.298909E-06
(1,14,9): (1,13,9) 2.444309E-06 (1,14,8) 1.203692E-06 (1,14,10) -1.465497E-07 (1,15,9) -1.564008E-07
(1,14,10): (1,13,10) 2.147570E-07 (1,14,9) 1.465497E-07 (1,15,10) -1.613027E-08
(1,15,1): (1,14,1) 1.328393E-09 (1,15,2) -2.305913E-09
(1,15,2): (1,14,2) 1.513681E-08 (1,15,1) 2.305913E-09 (1,15,3) 6.401258E-09
(1,15,3): (1,14,3) 1.567497E-07 (1,15,2) -6.401258E-09 (1,15,4) 6.196202E-08
(1,15,4): (1,14,4) 1.299300E-06 (1,15,3) -6.196202E-08 (1,15,5) 2.582410E-07
(1,15,5): (1,14,5) 6.889633E-06 (1,15,4) -2.582410E-07 (1,15,6) 5.324318E-08
(1,15,6): (1,14,6) 7.852729E-06 (1,15,5) -5.324318E-08 (1,15,7) -5.185318E-08
(1,15,7): (1,14,7) 6.889408E-06 (1,15,6) 5.185318E-08 (1,15,8) -2.570564E-07
(1,15,8): (1,14,8) 1.298909E-06 (1,15,7) 2.570564E-07 (1,15,9) -6.118410E-08
(1,15,9): (1,14,9) 1.564008E-07 (1,15,8) 6.118410E-08 (1,15,10) -6.279082E-09
(1,15,10): (1,14,10) 1.613027E-08 (1,15,9) 6.279082E-09

 WEL PACKAGE (WEL-1) FLOW RATES   PERIOD      2   STEP        1
 ----------------------------------------------------------------------------------------
   NUMBER   CELLID                    RATE       NAME                                    
 ----------------------------------------------------------------------------------------
     1      (1,8,6)              -270.00000      WEL                                     
 ----------------------------------------------------------------------------------------




 API PACKAGE (MAR) FLOW RATES   PERIOD      2   STEP        1
 -----------------------------------------------
   NUMBER   CELLID                    RATE      
 -----------------------------------------------
     1      (1,6,5)               46.666667     
     2      (1,6,6)               46.666667     
     3      (1,6,7)               46.666667     
     4      (1,10,5)              43.333333     
     5      (1,10,6)              43.333333     
     6      (1,10,7)              43.333333     
 -----------------------------------------------



1
  HEAD IN LAYER   1 AT END OF TIME STEP   1 IN STRESS PERIOD    2
  ---------------------------------------------------------------------------

            1           2           3           4           5           6           7           8           9          10
 ........................................................................................................................
   1   2.0732E-11  2.9300E-10  1.4609E-09  8.5020E-09  3.6549E-08  4.2314E-08  3.6519E-08  8.4358E-09  1.3500E-09  1.4711E-10
   2   1.6333E-10  1.9123E-09  1.8356E-08  1.4863E-07  7.7960E-07  8.8963E-07  7.7957E-07  1.4855E-07  1.8243E-08  1.8878E-09
   3   1.8252E-09  2.3529E-08  2.8186E-07  2.7526E-06  1.7632E-05  1.9747E-05  1.7632E-05  2.7525E-06  2.8184E-07  2.5048E-08
   4   1.8305E-08  2.7559E-07  3.9657E-06  4.8017E-05  4.0005E-04  4.3794E-04  4.0005E-04  4.8017E-05  3.9666E-06  2.9264E-07
   5   1.4379E-07  2.6056E-06  4.6635E-05  7.4604E-04  9.0936E-03  9.6862E-03  9.0936E-03  7.4604E-04  4.6641E-05  2.7419E-06
   6   6.8463E-07  1.5503E-05  3.6702E-04  8.7097E-03  0.2036      0.2098      0.2036      8.7097E-03  3.6704E-04  1.6158E-05
   7   1.0680E-07  1.8968E-06  3.2987E-05  4.9994E-04  5.1568E-03 -3.7607E-02  5.1568E-03  4.9994E-04  3.2992E-05  1.9980E-06
   8  -1.2402E-07 -3.0569E-06 -7.6879E-05 -1.9054E-03 -4.6627E-02  -1.132     -4.6627E-02 -1.9054E-03 -7.6884E-05 -3.1763E-06
   9   9.6444E-08  1.7087E-06  2.9614E-05  4.4590E-04  4.4974E-03 -3.8316E-02  4.4974E-03  4.4590E-04  2.9618E-05  1.8001E-06
  10   6.3453E-07  1.4371E-05  3.4027E-04  8.0765E-03  0.1890      0.1947      0.1890      8.0765E-03  3.4030E-04  1.4978E-05
  11   1.3329E-07  2.4155E-06  4.3240E-05  6.9178E-04  8.4330E-03  8.9768E-03  8.4330E-03  6.9178E-04  4.3246E-05  2.5422E-06
  12   1.6954E-08  2.5515E-07  3.6764E-06  4.4523E-05  3.7095E-04  4.0586E-04  3.7095E-04  4.4523E-05  3.6775E-06  2.7131E-07
  13   1.6708E-09  2.1364E-08  2.6048E-07  2.5512E-06  1.6348E-05  1.8300E-05  1.6348E-05  2.5513E-06  2.6081E-07  2.3201E-08
  14   1.2795E-10  1.2782E-09  1.6080E-08  1.3653E-07  7.2139E-07  8.2302E-07  7.2150E-07  1.3675E-07  1.6380E-08  1.7250E-09
  15  -4.8852E-12 -2.3548E-10  4.0465E-10  6.6009E-09  3.2425E-08  3.7749E-08  3.2564E-08  6.8583E-09  7.3990E-10  1.1199E-10

 HEAD WILL BE SAVED ON UNIT 1043 AT END OF TIME STEP    1, STRESS PERIOD    2


  VOLUME BUDGET FOR ENTIRE MODEL AT END OF TIME STEP    1, STRESS PERIOD   2
  ---------------------------------------------------------------------------------------------------

     CUMULATIVE VOLUME      L**3       RATES FOR THIS TIME STEP      L**3/T          PACKAGE NAME    
     ------------------                 ------------------------                     ----------------

           IN:                                      IN:
           ---                                      ---
              STO-SS =           1.2410                STO-SS =           0.1241     STORAGE                          
              STO-SY =        2611.0413                STO-SY =         261.1041     STORAGE                          
                 WEL =           0.0000                   WEL =           0.0000     WEL-1                            
                 API =        2700.0000                   API =         270.0000     MAR                              
                 CHD =       2.8247E-08                   CHD =           0.0000     CHD_0                            

            TOTAL IN =        5312.2824              TOTAL IN =         531.2282

          OUT:                                     OUT:
          ----                                     ----
              STO-SS =           1.3173                STO-SS =           0.1317     STORAGE                          
              STO-SY =        2610.9650                STO-SY =         261.0965     STORAGE                          
                 WEL =        2700.0000                   WEL =         270.0000     WEL-1                            
                 API =           0.0000                   API =           0.0000     MAR                              
                 CHD =       3.0388E-08                   CHD =           0.0000     CHD_0                            

           TOTAL OUT =        5312.2824             TOTAL OUT =         531.2282

            IN - OUT =      -4.9822E-09              IN - OUT =      -2.8422E-10

 PERCENT DISCREPANCY =          -0.00     PERCENT DISCREPANCY =          -0.00




         TIME SUMMARY AT END OF TIME STEP    1 IN STRESS PERIOD    2
                    SECONDS     MINUTES      HOURS       DAYS        YEARS
                    -----------------------------------------------------------
   TIME STEP LENGTH 8.64000E+05  14400.      240.00      10.000     2.73785E-02
 STRESS PERIOD TIME 8.64000E+05  14400.      240.00      10.000     2.73785E-02
         TOTAL TIME 9.50400E+05  15840.      264.00      11.000     3.01164E-02


end timestep


start timestep kper="2" kstp="2" mode="normal"

 UBDSV1 SAVING           STO-SS ON UNIT   1042 AT TIME STEP      2, STRESS PERIOD      2
 UBDSV1 SAVING           STO-SY ON UNIT   1042 AT TIME STEP      2, STRESS PERIOD      2
 UBDSV1 SAVING     FLOW-JA-FACE ON UNIT   1042 AT TIME STEP      2, STRESS PERIOD      2
 UBDSV06 SAVING       DATA-SPDIS IN MODEL GWF              PACKAGE NPF             CONNECTED TO MODEL GWF              PACKAGE NPF              ON UNIT   1042 AT TIME STEP      2, STRESS PERIOD      2
 UBDSV06 SAVING              WEL IN MODEL GWF              PACKAGE GWF             CONNECTED TO MODEL GWF              PACKAGE WEL-1            ON UNIT   1042 AT TIME STEP      2, STRESS PERIOD      2
 UBDSV06 SAVING              API IN MODEL GWF              PACKAGE GWF             CONNECTED TO MODEL GWF              PACKAGE MAR              ON UNIT   1042 AT TIME STEP      2, STRESS PERIOD      2
 UBDSV06 SAVING              CHD IN MODEL GWF              PACKAGE GWF             CONNECTED TO MODEL GWF              PACKAGE CHD_0            ON UNIT   1042 AT TIME STEP      2, STRESS PERIOD      2

    CALCULATED INTERCELL FLOW FOR PERIOD 2 STEP 2
(1,1,1): (1,1,2) 1.129179E-08 (1,2,1) 1.233618E-08
(1,1,2): (1,1,1) -1.129179E-08 (1,1,3) 8.094934E-08 (1,2,2) 1.254383E-07
(1,1,3): (1,1,2) -8.094934E-08 (1,1,4) 4.855629E-07 (1,2,3) 1.176585E-06
(1,1,4): (1,1,3) -4.855629E-07 (1,1,5) 1.732358E-06 (1,2,4) 8.641602E-06
(1,1,5): (1,1,4) -1.732358E-06 (1,1,6) 3.939118E-07 (1,2,5) 4.027913E-05
(1,1,6): (1,1,5) -3.939118E-07 (1,1,7) -3.942171E-07 (1,2,6) 4.645738E-05
(1,1,7): (1,1,6) 3.942171E-07 (1,1,8) -1.732716E-06 (1,2,7) 4.027909E-05
(1,1,8): (1,1,7) 1.732716E-06 (1,1,9) -4.859177E-07 (1,2,8) 8.641579E-06
(1,1,9): (1,1,8) 4.859177E-07 (1,1,10) -8.029700E-08 (1,2,9) 1.177394E-06
(1,1,10): (1,1,9) 8.029700E-08 (1,2,10) 1.366739E-07
(1,2,1): (1,1,1) -1.233618E-08 (1,2,2) 1.243939E-07 (1,3,1) 1.298836E-07
(1,2,2): (1,1,2) -1.254383E-07 (1,2,1) -1.243939E-07 (1,2,3) 1.132097E-06 (1,3,2) 1.498838E-06
(1,2,3): (1,1,3) -1.176585E-06 (1,2,2) -1.132097E-06 (1,2,4) 7.950579E-06 (1,3,3) 1.610202E-05
(1,2,4): (1,1,4) -8.641602E-06 (1,2,3) -7.950579E-06 (1,2,5) 3.336989E-05 (1,3,4) 1.379898E-04
(1,2,5): (1,1,5) -4.027913E-05 (1,2,4) -3.336989E-05 (1,2,6) 6.572155E-06 (1,3,5) 7.633179E-04
(1,2,6): (1,1,6) -4.645738E-05 (1,2,5) -6.572155E-06 (1,2,7) -6.572505E-06 (1,3,6) 8.653355E-04
(1,2,7): (1,1,7) -4.027909E-05 (1,2,6) 6.572505E-06 (1,2,8) -3.337022E-05 (1,3,7) 7.633180E-04
(1,2,8): (1,1,8) -8.641579E-06 (1,2,7) 3.337022E-05 (1,2,9) -7.950103E-06 (1,3,8) 1.379904E-04
(1,2,9): (1,1,9) -1.177394E-06 (1,2,8) 7.950103E-06 (1,2,10) -1.121017E-06 (1,3,9) 1.611077E-05
(1,2,10): (1,1,10) -1.366739E-07 (1,2,9) 1.121017E-06 (1,3,10) 1.619163E-06
(1,3,1): (1,2,1) -1.298836E-07 (1,3,2) 1.493348E-06 (1,4,1) 1.144910E-06
(1,3,2): (1,2,2) -1.498838E-06 (1,3,1) -1.493348E-06 (1,3,3) 1.573528E-05 (1,4,2) 1.530423E-05
(1,3,3): (1,2,3) -1.610202E-05 (1,3,2) -1.573528E-05 (1,3,4) 1.298384E-04 (1,4,3) 1.932180E-04
(1,3,4): (1,2,4) -1.379898E-04 (1,3,3) -1.298384E-04 (1,3,5) 6.586973E-04 (1,4,4) 2.004022E-03
(1,3,5): (1,2,5) -7.633179E-04 (1,3,4) -6.586973E-04 (1,3,6) 1.085889E-04 (1,4,5) 1.391133E-02
(1,3,6): (1,2,6) -8.653355E-04 (1,3,5) -1.085889E-04 (1,3,7) -1.085893E-04 (1,4,6) 1.543010E-02
(1,3,7): (1,2,7) -7.633180E-04 (1,3,6) 1.085893E-04 (1,3,8) -6.586971E-04 (1,4,7) 1.391133E-02
(1,3,8): (1,2,8) -1.379904E-04 (1,3,7) 6.586971E-04 (1,3,9) -1.298297E-04 (1,4,8) 2.004026E-03
(1,3,9): (1,2,9) -1.611077E-05 (1,3,8) 1.298297E-04 (1,3,10) -1.561262E-05 (1,4,9) 1.932874E-04
(1,3,10): (1,2,10) -1.619163E-06 (1,3,9) 1.561262E-05 (1,4,10) 1.637511E-05
(1,4,1): (1,3,1) -1.144910E-06 (1,4,2) 1.565267E-05 (1,5,1) 7.612593E-06
(1,4,2): (1,3,2) -1.530423E-05 (1,4,1) -1.565267E-05 (1,4,3) 1.936491E-04 (1,5,2) 1.211547E-04
(1,4,3): (1,3,3) -1.932180E-04 (1,4,2) -1.936491E-04 (1,4,4) 1.940641E-03 (1,5,3) 1.866596E-03
(1,4,4): (1,3,4) -2.004022E-03 (1,4,3) -1.940641E-03 (1,4,5) 1.256584E-02 (1,5,4) 2.481604E-02
(1,4,5): (1,3,5) -1.391133E-02 (1,4,4) -1.256584E-02 (1,4,6) 1.627157E-03 (1,5,5) 0.239252
(1,4,6): (1,3,6) -1.543010E-02 (1,4,5) -1.627157E-03 (1,4,7) -1.627157E-03 (1,5,6) 0.258057
(1,4,7): (1,3,7) -1.391133E-02 (1,4,6) 1.627157E-03 (1,4,8) -1.256584E-02 (1,5,7) 0.239252
(1,4,8): (1,3,8) -2.004026E-03 (1,4,7) 1.256584E-02 (1,4,9) -1.940567E-03 (1,5,8) 2.481606E-02
(1,4,9): (1,3,9) -1.932874E-04 (1,4,8) 1.940567E-03 (1,4,10) -1.925249E-04 (1,5,9) 1.867000E-03
(1,4,10): (1,3,10) -1.637511E-05 (1,4,9) 1.925249E-04 (1,5,10) 1.283406E-04
(1,5,1): (1,4,1) -7.612593E-06 (1,5,2) 1.291948E-04 (1,6,1) 2.775736E-05
(1,5,2): (1,4,2) -1.211547E-04 (1,5,1) -1.291948E-04 (1,5,3) 1.939092E-03 (1,6,2) 5.531729E-04
(1,5,3): (1,4,3) -1.866596E-03 (1,5,2) -1.939092E-03 (1,5,4) 2.489010E-02 (1,6,3) 1.114776E-02
(1,5,4): (1,4,4) -2.481604E-02 (1,5,3) -2.489010E-02 (1,5,5) 0.226976 (1,6,4) 0.212929
(1,5,5): (1,4,5) -0.239252 (1,5,4) -0.226976 (1,5,6) 2.038835E-02 (1,6,5) 3.69600
(1,5,6): (1,4,6) -0.258057 (1,5,5) -2.038835E-02 (1,5,7) -2.038835E-02 (1,6,6) 3.83727
(1,5,7): (1,4,7) -0.239252 (1,5,6) 2.038835E-02 (1,5,8) -0.226976 (1,6,7) 3.69600
(1,5,8): (1,4,8) -2.481606E-02 (1,5,7) 0.226976 (1,5,9) -2.488965E-02 (1,6,8) 0.212929
(1,5,9): (1,4,9) -1.867000E-03 (1,5,8) 2.488965E-02 (1,5,10) -1.931185E-03 (1,6,9) 1.114899E-02
(1,5,10): (1,4,10) -1.283406E-04 (1,5,9) 1.931185E-03 (1,6,10) 5.796320E-04
(1,6,1): (1,5,1) -2.775736E-05 (1,6,2) 6.546108E-04 (1,7,1) -3.031089E-05
(1,6,2): (1,5,2) -5.531729E-04 (1,6,1) -6.546108E-04 (1,6,3) 1.253382E-02 (1,7,2) -5.959033E-04
(1,6,3): (1,5,3) -1.114776E-02 (1,6,2) -1.253382E-02 (1,6,4) 0.226699 (1,7,3) -1.185640E-02
(1,6,4): (1,5,4) -0.212929 (1,6,3) -0.226699 (1,6,5) 3.71051 (1,7,4) -0.223670
(1,6,5): (1,5,5) -3.69600 (1,6,4) -3.71051 (1,6,6) 0.157039 (1,7,5) -3.83952
(1,6,6): (1,5,6) -3.83727 (1,6,5) -0.157039 (1,6,7) -0.157039 (1,7,6) -5.15414
(1,6,7): (1,5,7) -3.69600 (1,6,6) 0.157039 (1,6,8) -3.71051 (1,7,7) -3.83952
(1,6,8): (1,5,8) -0.212929 (1,6,7) 3.71051 (1,6,9) -0.226697 (1,7,8) -0.223670
(1,6,9): (1,5,9) -1.114899E-02 (1,6,8) 0.226697 (1,6,10) -1.250069E-02 (1,7,9) -1.185777E-02
(1,6,10): (1,5,10) -5.796320E-04 (1,6,9) 1.250069E-02 (1,7,10) -6.247774E-04
(1,7,1): (1,6,1) 3.031089E-05 (1,7,2) 8.901814E-05 (1,8,1) -1.368402E-05
(1,7,2): (1,6,2) 5.959033E-04 (1,7,1) -8.901814E-05 (1,7,3) 1.273244E-03 (1,8,2) -2.514146E-04
(1,7,3): (1,6,3) 1.185640E-02 (1,7,2) -1.273244E-03 (1,7,4) 1.487888E-02 (1,8,3) -4.677112E-03
(1,7,4): (1,6,4) 0.223670 (1,7,3) -1.487888E-02 (1,7,5) 9.897880E-02 (1,8,4) -8.274352E-02
(1,7,5): (1,6,5) 3.83952 (1,7,4) -9.897880E-02 (1,7,6) -1.10934 (1,8,5) -1.35973
(1,7,6): (1,6,6) 5.15414 (1,7,5) 1.10934 (1,7,7) 1.10934 (1,8,6) -19.7166
(1,7,7): (1,6,7) 3.83952 (1,7,6) -1.10934 (1,7,8) -9.897878E-02 (1,8,7) -1.35973
(1,7,8): (1,6,8) 0.223670 (1,7,7) 9.897878E-02 (1,7,9) -1.487855E-02 (1,8,8) -8.274355E-02
(1,7,9): (1,6,9) 1.185777E-02 (1,7,8) 1.487855E-02 (1,7,10) -1.267622E-03 (1,8,9) -4.677767E-03
(1,7,10): (1,6,10) 6.247774E-04 (1,7,9) 1.267622E-03 (1,8,10) -2.644091E-04
(1,8,1): (1,7,1) 1.368402E-05 (1,8,2) -1.487123E-04 (1,9,1) 1.304191E-05
(1,8,2): (1,7,2) 2.514146E-04 (1,8,1) 1.487123E-04 (1,8,3) -3.152402E-03 (1,9,2) 2.414159E-04
(1,8,3): (1,7,3) 4.677112E-03 (1,8,2) 3.152402E-03 (1,8,4) -6.317447E-02 (1,9,3) 4.526235E-03
(1,8,4): (1,7,4) 8.274352E-02 (1,8,3) 6.317447E-02 (1,8,5) -1.17578 (1,9,4) 8.077763E-02
(1,8,5): (1,7,5) 1.35973 (1,8,4) 1.17578 (1,8,6) -19.4198 (1,9,5) 1.34094
(1,8,6): (1,7,6) 19.7166 (1,8,5) 19.4198 (1,8,7) 19.4198 (1,9,6) 19.6925
(1,8,7): (1,7,7) 1.35973 (1,8,6) -19.4198 (1,8,8) 1.17578 (1,9,7) 1.34094
(1,8,8): (1,7,8) 8.274355E-02 (1,8,7) -1.17578 (1,8,9) 6.317418E-02 (1,9,8) 8.077766E-02
(1,8,9): (1,7,9) 4.677767E-03 (1,8,8) -6.317418E-02 (1,8,10) 3.145685E-03 (1,9,9) 4.526856E-03
(1,8,10): (1,7,10) 2.644091E-04 (1,8,9) -3.145685E-03 (1,9,10) 2.538061E-04
(1,9,1): (1,8,1) -1.304191E-05 (1,9,2) 7.966153E-05 (1,10,1) 2.824864E-05
(1,9,2): (1,8,2) -2.414159E-04 (1,9,1) -7.966153E-05 (1,9,3) 1.132371E-03 (1,10,2) 5.549950E-04
(1,9,3): (1,8,3) -4.526235E-03 (1,9,2) -1.132371E-03 (1,9,4) 1.306521E-02 (1,10,3) 1.103436E-02
(1,9,4): (1,8,4) -8.077763E-02 (1,9,3) -1.306521E-02 (1,9,5) 8.239596E-02 (1,10,4) 0.207987
(1,9,5): (1,8,5) -1.34094 (1,9,4) -8.239596E-02 (1,9,6) -1.11088 (1,10,5) 3.56720
(1,9,6): (1,8,6) -19.6925 (1,9,5) 1.11088 (1,9,7) 1.11088 (1,10,6) 4.86330
(1,9,7): (1,8,7) -1.34094 (1,9,6) -1.11088 (1,9,8) -8.239594E-02 (1,10,7) 3.56720
(1,9,8): (1,8,8) -8.077766E-02 (1,9,7) 8.239594E-02 (1,9,9) -1.306491E-02 (1,10,8) 0.207988
(1,9,9): (1,8,9) -4.526856E-03 (1,9,8) 1.306491E-02 (1,9,10) -1.127319E-03 (1,10,9) 1.103564E-02
(1,9,10): (1,8,10) -2.538061E-04 (1,9,9) 1.127319E-03 (1,10,10) 5.819049E-04
(1,10,1): (1,9,1) -2.824864E-05 (1,10,2) 6.064082E-04 (1,11,1) -2.570592E-05
(1,10,2): (1,9,2) -5.549950E-04 (1,10,1) -6.064082E-04 (1,10,3) 1.161180E-02 (1,11,2) -5.123902E-04
(1,10,3): (1,9,3) -1.103436E-02 (1,10,2) -1.161180E-02 (1,10,4) 0.210022 (1,11,3) -1.032709E-02
(1,10,4): (1,9,4) -0.207987 (1,10,3) -0.210022 (1,10,5) 3.43755 (1,11,4) -0.197261
(1,10,5): (1,9,5) -3.56720 (1,10,4) -3.43755 (1,10,6) 0.140797 (1,11,5) -3.42411
(1,10,6): (1,9,6) -4.86330 (1,10,5) -0.140797 (1,10,7) -0.140797 (1,11,6) -3.55012
(1,10,7): (1,9,7) -3.56720 (1,10,6) 0.140797 (1,10,8) -3.43755 (1,11,7) -3.42411
(1,10,8): (1,9,8) -0.207988 (1,10,7) 3.43755 (1,10,9) -0.210021 (1,11,8) -0.197261
(1,10,9): (1,9,9) -1.103564E-02 (1,10,8) 0.210021 (1,10,10) -1.158111E-02 (1,11,9) -1.032824E-02
(1,10,10): (1,9,10) -5.819049E-04 (1,10,9) 1.158111E-02 (1,11,10) -5.368932E-04
(1,11,1): (1,10,1) 2.570592E-05 (1,11,2) 1.197234E-04 (1,12,1) -7.054307E-06
(1,11,2): (1,10,2) 5.123902E-04 (1,11,1) -1.197234E-04 (1,11,3) 1.796969E-03 (1,12,2) -1.122737E-04
(1,11,3): (1,10,3) 1.032709E-02 (1,11,2) -1.796969E-03 (1,11,4) 2.306472E-02 (1,12,3) -1.729767E-03
(1,11,4): (1,10,4) 0.197261 (1,11,3) -2.306472E-02 (1,11,5) 0.210302 (1,12,4) -2.299593E-02
(1,11,5): (1,10,5) 3.42411 (1,11,4) -0.210302 (1,11,6) 1.863903E-02 (1,12,5) -0.221676
(1,11,6): (1,10,6) 3.55012 (1,11,5) -1.863903E-02 (1,11,7) -1.863902E-02 (1,12,6) -0.238857
(1,11,7): (1,10,7) 3.42411 (1,11,6) 1.863902E-02 (1,11,8) -0.210302 (1,12,7) -0.221676
(1,11,8): (1,10,8) 0.197261 (1,11,7) 0.210302 (1,11,9) -2.306429E-02 (1,12,8) -2.299595E-02
(1,11,9): (1,10,9) 1.032824E-02 (1,11,8) 2.306429E-02 (1,11,10) -1.789642E-03 (1,12,9) -1.730140E-03
(1,11,10): (1,10,10) 5.368932E-04 (1,11,9) 1.789642E-03 (1,12,10) -1.189317E-04
(1,12,1): (1,11,1) 7.054307E-06 (1,12,2) 1.450400E-05 (1,13,1) -1.061189E-06
(1,12,2): (1,11,2) 1.122737E-04 (1,12,1) -1.450400E-05 (1,12,3) 1.794749E-04 (1,13,2) -1.418509E-05
(1,12,3): (1,11,3) 1.729767E-03 (1,12,2) -1.794749E-04 (1,12,4) 1.798538E-03 (1,13,3) -1.790792E-04
(1,12,4): (1,11,4) 2.299593E-02 (1,12,3) -1.798538E-03 (1,12,5) 1.164426E-02 (1,13,4) -1.857281E-03
(1,12,5): (1,11,5) 0.221676 (1,12,4) -1.164426E-02 (1,12,6) 1.495815E-03 (1,13,5) -1.289124E-02
(1,12,6): (1,11,6) 0.238857 (1,12,5) -1.495815E-03 (1,12,7) -1.495814E-03 (1,13,6) -1.428715E-02
(1,12,7): (1,11,7) 0.221676 (1,12,6) 1.495814E-03 (1,12,8) -1.164425E-02 (1,13,7) -1.289124E-02
(1,12,8): (1,11,8) 2.299595E-02 (1,12,7) 1.164425E-02 (1,12,9) -1.798469E-03 (1,13,8) -1.857285E-03
(1,12,9): (1,11,9) 1.730140E-03 (1,12,8) 1.798469E-03 (1,12,10) -1.784323E-04 (1,13,9) -1.791428E-04
(1,12,10): (1,11,10) 1.189317E-04 (1,12,9) 1.784323E-04 (1,13,10) -1.517699E-05
(1,13,1): (1,12,1) 1.061189E-06 (1,13,2) 1.380101E-06 (1,14,1) -1.204286E-07
(1,13,2): (1,12,2) 1.418509E-05 (1,13,1) -1.380101E-06 (1,13,3) 1.458076E-05 (1,14,2) -1.389696E-06
(1,13,3): (1,12,3) 1.790792E-04 (1,13,2) -1.458076E-05 (1,13,4) 1.203369E-04 (1,14,3) -1.492548E-05
(1,13,4): (1,12,4) 1.857281E-03 (1,13,3) -1.203369E-04 (1,13,5) 6.104365E-04 (1,14,4) -1.278965E-04
(1,13,5): (1,12,5) 1.289124E-02 (1,13,4) -6.104365E-04 (1,13,6) 1.000809E-04 (1,14,5) -7.074088E-04
(1,13,6): (1,12,6) 1.428715E-02 (1,13,5) -1.000809E-04 (1,13,7) -1.000800E-04 (1,14,6) -8.014244E-04
(1,13,7): (1,12,7) 1.289124E-02 (1,13,6) 1.000800E-04 (1,13,8) -6.104351E-04 (1,14,7) -7.074085E-04
(1,13,8): (1,12,8) 1.857285E-03 (1,13,7) 6.104351E-04 (1,13,9) -1.203278E-04 (1,14,8) -1.278965E-04
(1,13,9): (1,12,9) 1.791428E-04 (1,13,8) 1.203278E-04 (1,13,10) -1.446647E-05 (1,14,9) -1.493301E-05
(1,13,10): (1,12,10) 1.517699E-05 (1,13,9) 1.446647E-05 (1,14,10) -1.500823E-06
(1,14,1): (1,13,1) 1.204286E-07 (1,14,2) 1.108340E-07 (1,15,1) -1.144758E-08
(1,14,2): (1,13,2) 1.389696E-06 (1,14,1) -1.108340E-07 (1,14,3) 1.044977E-06 (1,15,2) -1.163995E-07
(1,14,3): (1,13,3) 1.492548E-05 (1,14,2) -1.044977E-06 (1,14,4) 7.365912E-06 (1,15,3) -1.090724E-06
(1,14,4): (1,13,4) 1.278965E-04 (1,14,3) -7.365912E-06 (1,14,5) 3.092471E-05 (1,15,4) -8.009866E-06
(1,14,5): (1,13,5) 7.074088E-04 (1,14,4) -3.092471E-05 (1,14,6) 6.065899E-06 (1,15,5) -3.733081E-05
(1,14,6): (1,13,6) 8.014244E-04 (1,14,5) -6.065899E-06 (1,14,7) -6.064743E-06 (1,15,6) -4.303285E-05
(1,14,7): (1,13,7) 7.074085E-04 (1,14,6) 6.064743E-06 (1,14,8) -3.092364E-05 (1,15,7) -3.733060E-05
(1,14,8): (1,13,8) 1.278965E-04 (1,14,7) 3.092364E-05 (1,14,9) -7.364323E-06 (1,15,8) -8.009549E-06
(1,14,9): (1,13,9) 1.493301E-05 (1,14,8) 7.364323E-06 (1,14,10) -1.034278E-06 (1,15,9) -1.091162E-06
(1,14,10): (1,13,10) 1.500823E-06 (1,14,9) 1.034278E-06 (1,15,10) -1.266731E-07
(1,15,1): (1,14,1) 1.144758E-08 (1,15,2) 5.882019E-09
(1,15,2): (1,14,2) 1.163995E-07 (1,15,1) -5.882019E-09 (1,15,3) 7.065266E-08
(1,15,3): (1,14,3) 1.090724E-06 (1,15,2) -7.065266E-08 (1,15,4) 4.467704E-07
(1,15,4): (1,14,4) 8.009866E-06 (1,15,3) -4.467704E-07 (1,15,5) 1.603769E-06
(1,15,5): (1,14,5) 3.733081E-05 (1,15,4) -1.603769E-06 (1,15,6) 3.638663E-07
(1,15,6): (1,14,6) 4.303285E-05 (1,15,5) -3.638663E-07 (1,15,7) -3.624968E-07
(1,15,7): (1,14,7) 3.733060E-05 (1,15,6) 3.624968E-07 (1,15,8) -1.602597E-06
(1,15,8): (1,14,8) 8.009549E-06 (1,15,7) 1.602597E-06 (1,15,9) -4.459364E-07
(1,15,9): (1,14,9) 1.091162E-06 (1,15,8) 4.459364E-07 (1,15,10) -6.978952E-08
(1,15,10): (1,14,10) 1.266731E-07 (1,15,9) 6.978952E-08

 WEL PACKAGE (WEL-1) FLOW RATES   PERIOD      2   STEP        2
 ----------------------------------------------------------------------------------------
   NUMBER   CELLID                    RATE       NAME                                    
 ----------------------------------------------------------------------------------------
     1      (1,8,6)              -270.00000      WEL                                     
 ----------------------------------------------------------------------------------------




 API PACKAGE (MAR) FLOW RATES   PERIOD      2   STEP        2
 -----------------------------------------------
   NUMBER   CELLID                    RATE      
 -----------------------------------------------
     1      (1,6,5)               46.666667     
     2      (1,6,6)               46.666667     
     3      (1,6,7)               46.666667     
     4      (1,10,5)              43.333333     
     5      (1,10,6)              43.333333     
     6      (1,10,7)              43.333333     
 -----------------------------------------------



1
  HEAD IN LAYER   1 AT END OF TIME STEP   2 IN STRESS PERIOD    2
  ---------------------------------------------------------------------------

            1           2           3           4           5           6           7           8           9          10
 ........................................................................................................................
   1   1.3881E-10  1.2680E-09  9.3629E-09  5.7919E-08  2.3116E-07  2.7055E-07  2.3112E-07  5.7853E-08  9.2611E-09  1.2314E-09
   2   1.3724E-09  1.3812E-08  1.2702E-07  9.2208E-07  4.2591E-06  4.9163E-06  4.2590E-06  9.2201E-07  1.2700E-07  1.4899E-08
   3   1.4361E-08  1.6370E-07  1.7372E-06  1.4721E-05  8.0590E-05  9.1449E-05  8.0590E-05  1.4721E-05  1.7381E-06  1.7682E-07
   4   1.2885E-07  1.6941E-06  2.1059E-05  2.1512E-04  1.4715E-03  1.6342E-03  1.4715E-03  2.1512E-04  2.1067E-05  1.8143E-06
   5   8.9011E-07  1.3810E-05  2.0771E-04  2.6961E-03  2.5336E-02  2.7370E-02  2.5336E-02  2.6961E-03  2.0776E-04  1.4648E-05
   6   3.6658E-06  6.9126E-05  1.3223E-03  2.3938E-02  0.3814      0.3965      0.3814      2.3938E-02  1.3225E-03  7.2611E-05
   7   6.3476E-07  9.5366E-06  1.3686E-04  1.6245E-03  1.1511E-02 -9.9295E-02  1.1511E-02  1.6245E-03  1.3689E-04  1.0134E-05
   8  -7.3364E-07 -1.5605E-05 -3.3085E-04 -6.6485E-03 -0.1243      -2.091     -0.1243     -6.6485E-03 -3.3088E-04 -1.6307E-05
   9   5.7055E-07  8.5367E-06  1.2177E-04  1.4281E-03  9.6598E-03 -0.1013      9.6598E-03  1.4281E-03  1.2180E-04  9.0736E-06
  10   3.3954E-06  6.4036E-05  1.2251E-03  2.2181E-02  0.3542      0.3678      0.3542      2.2181E-02  1.2252E-03  6.7264E-05
  11   8.2482E-07  1.2797E-05  1.9249E-04  2.4984E-03  2.3479E-02  2.5339E-02  2.3479E-02  2.4984E-03  1.9254E-04  1.3575E-05
  12   1.1939E-07  1.5698E-06  1.9517E-05  1.9937E-04  1.3636E-03  1.5132E-03  1.3636E-03  1.9937E-04  1.9525E-05  1.6815E-06
  13   1.3269E-08  1.5128E-07  1.6094E-06  1.3643E-05  7.4686E-05  8.4694E-05  7.4686E-05  1.3643E-05  1.6105E-06  1.6384E-07
  14   1.2265E-09  1.2310E-08  1.1681E-07  8.5340E-07  3.9459E-06  4.5525E-06  3.9460E-06  8.5362E-07  1.1719E-07  1.3761E-08
  15   8.1720E-11  6.6992E-10  7.7352E-09  5.2412E-08  2.1279E-07  2.4918E-07  2.1293E-07  5.2666E-08  8.0728E-09  1.0938E-09

 HEAD WILL BE SAVED ON UNIT 1043 AT END OF TIME STEP    2, STRESS PERIOD    2


  VOLUME BUDGET FOR ENTIRE MODEL AT END OF TIME STEP    2, STRESS PERIOD   2
  ---------------------------------------------------------------------------------------------------

     CUMULATIVE VOLUME      L**3       RATES FOR THIS TIME STEP      L**3/T          PACKAGE NAME    
     ------------------                 ------------------------                     ----------------

           IN:                                      IN:
           ---                                      ---
              STO-SS =           2.3328                STO-SS =           0.1092     STORAGE                          
              STO-SY =        5107.8925                STO-SY =         249.6851     STORAGE                          
                 WEL =           0.0000                   WEL =           0.0000     WEL-1                            
                 API =        5400.0000                   API =         270.0000     MAR                              
                 CHD =       2.8247E-08                   CHD =           0.0000     CHD_0                            

            TOTAL IN =       10510.2253              TOTAL IN =         519.7943

          OUT:                                     OUT:
          ----                                     ----
              STO-SS =           2.5958                STO-SS =           0.1279     STORAGE                          
              STO-SY =        5107.6294                STO-SY =         249.6664     STORAGE                          
                 WEL =        5400.0000                   WEL =         270.0000     WEL-1                            
                 API =           0.0000                   API =           0.0000     MAR                              
                 CHD =       3.0388E-08                   CHD =           0.0000     CHD_0                            

           TOTAL OUT =       10510.2253             TOTAL OUT =         519.7943

            IN - OUT =      -1.0610E-08              IN - OUT =      -5.6286E-10

 PERCENT DISCREPANCY =          -0.00     PERCENT DISCREPANCY =          -0.00




         TIME SUMMARY AT END OF TIME STEP    2 IN STRESS PERIOD    2
                    SECONDS     MINUTES      HOURS       DAYS        YEARS
                    -----------------------------------------------------------
   TIME STEP LENGTH 8.64000E+05  14400.      240.00      10.000     2.73785E-02
 STRESS PERIOD TIME 1.72800E+06  28800.      480.00      20.000     5.47570E-02
         TOTAL TIME 1.81440E+06  30240.      504.00      21.000     5.74949E-02


end timestep


start timestep kper="2" kstp="3" mode="normal"

 UBDSV1 SAVING           STO-SS ON UNIT   1042 AT TIME STEP      3, STRESS PERIOD      2
 UBDSV1 SAVING           STO-SY ON UNIT   1042 AT TIME STEP      3, STRESS PERIOD      2
 UBDSV1 SAVING     FLOW-JA-FACE ON UNIT   1042 AT TIME STEP      3, STRESS PERIOD      2
 UBDSV06 SAVING       DATA-SPDIS IN MODEL GWF              PACKAGE NPF             CONNECTED TO MODEL GWF              PACKAGE NPF              ON UNIT   1042 AT TIME STEP      3, STRESS PERIOD      2
 UBDSV06 SAVING              WEL IN MODEL GWF              PACKAGE GWF             CONNECTED TO MODEL GWF              PACKAGE WEL-1            ON UNIT   1042 AT TIME STEP      3, STRESS PERIOD      2
 UBDSV06 SAVING              API IN MODEL GWF              PACKAGE GWF             CONNECTED TO MODEL GWF              PACKAGE MAR              ON UNIT   1042 AT TIME STEP      3, STRESS PERIOD      2
 UBDSV06 SAVING              CHD IN MODEL GWF              PACKAGE GWF             CONNECTED TO MODEL GWF              PACKAGE CHD_0            ON UNIT   1042 AT TIME STEP      3, STRESS PERIOD      2

    CALCULATED INTERCELL FLOW FOR PERIOD 2 STEP 3
(1,1,1): (1,1,2) 4.807431E-08 (1,2,1) 5.887435E-08
(1,1,2): (1,1,1) -4.807431E-08 (1,1,3) 3.478229E-07 (1,2,2) 5.432181E-07
(1,1,3): (1,1,2) -3.478229E-07 (1,1,4) 1.912186E-06 (1,2,3) 4.618749E-06
(1,1,4): (1,1,3) -1.912186E-06 (1,1,5) 6.140726E-06 (1,2,4) 3.050133E-05
(1,1,5): (1,1,4) -6.140726E-06 (1,1,6) 1.520052E-06 (1,2,5) 1.275621E-04
(1,1,6): (1,1,5) -1.520052E-06 (1,1,7) -1.520359E-06 (1,2,6) 1.485159E-04
(1,1,7): (1,1,6) 1.520359E-06 (1,1,8) -6.141047E-06 (1,2,7) 1.275620E-04
(1,1,8): (1,1,7) 6.141047E-06 (1,1,9) -1.912098E-06 (1,2,8) 3.050163E-05
(1,1,9): (1,1,8) 1.912098E-06 (1,1,10) -3.428180E-07 (1,2,9) 4.623404E-06
(1,1,10): (1,1,9) 3.428180E-07 (1,2,10) 5.968156E-07
(1,2,1): (1,1,1) -5.887435E-08 (1,2,2) 5.324181E-07 (1,3,1) 5.646344E-07
(1,2,2): (1,1,2) -5.432181E-07 (1,2,1) -5.324181E-07 (1,2,3) 4.423354E-06 (1,3,2) 5.855032E-06
(1,2,3): (1,1,3) -4.618749E-06 (1,2,2) -4.423354E-06 (1,2,4) 2.779476E-05 (1,3,3) 5.630822E-05
(1,2,4): (1,1,4) -3.050133E-05 (1,2,3) -2.779476E-05 (1,2,5) 1.032014E-04 (1,3,4) 4.272378E-04
(1,2,5): (1,1,5) -1.275621E-04 (1,2,4) -1.032014E-04 (1,2,6) 2.247384E-05 (1,3,5) 2.077761E-03
(1,2,6): (1,1,6) -1.485159E-04 (1,2,5) -2.247384E-05 (1,2,7) -2.247417E-05 (1,3,6) 2.381128E-03
(1,2,7): (1,1,7) -1.275620E-04 (1,2,6) 2.247417E-05 (1,2,8) -1.032014E-04 (1,3,7) 2.077761E-03
(1,2,8): (1,1,8) -3.050163E-05 (1,2,7) 1.032014E-04 (1,2,9) -2.779032E-05 (1,3,8) 4.272409E-04
(1,2,9): (1,1,9) -4.623404E-06 (1,2,8) 2.779032E-05 (1,2,10) -4.369406E-06 (1,3,9) 5.634990E-05
(1,2,10): (1,1,10) -5.968156E-07 (1,2,9) 4.369406E-06 (1,3,10) 6.374488E-06
(1,3,1): (1,2,1) -5.646344E-07 (1,3,2) 5.822816E-06 (1,4,1) 4.479369E-06
(1,3,2): (1,2,2) -5.855032E-06 (1,3,1) -5.822816E-06 (1,3,3) 5.487654E-05 (1,4,2) 5.317159E-05
(1,3,3): (1,2,3) -5.630822E-05 (1,3,2) -5.487654E-05 (1,3,4) 3.987243E-04 (1,4,3) 5.920475E-04
(1,3,4): (1,2,4) -4.272378E-04 (1,3,3) -3.987243E-04 (1,3,5) 1.753719E-03 (1,4,4) 5.332209E-03
(1,3,5): (1,2,5) -2.077761E-03 (1,3,4) -1.753719E-03 (1,3,6) 3.258343E-04 (1,4,5) 3.167635E-02
(1,3,6): (1,2,6) -2.381128E-03 (1,3,5) -3.258343E-04 (1,3,7) -3.258345E-04 (1,4,6) 3.555044E-02
(1,3,7): (1,2,7) -2.077761E-03 (1,3,6) 3.258345E-04 (1,3,8) -1.753716E-03 (1,4,7) 3.167635E-02
(1,3,8): (1,2,8) -4.272409E-04 (1,3,7) 1.753716E-03 (1,3,9) -3.986812E-04 (1,4,8) 5.332229E-03
(1,3,9): (1,2,9) -5.634990E-05 (1,3,8) 3.986812E-04 (1,3,10) -5.434482E-05 (1,4,9) 5.923461E-04
(1,3,10): (1,2,10) -6.374488E-06 (1,3,9) 5.434482E-05 (1,4,10) 5.733089E-05
(1,4,1): (1,3,1) -4.479369E-06 (1,4,2) 5.451504E-05 (1,5,1) 2.642446E-05
(1,4,2): (1,3,2) -5.317159E-05 (1,4,1) -5.451504E-05 (1,4,3) 5.937525E-04 (1,5,2) 3.680305E-04
(1,4,3): (1,3,3) -5.920475E-04 (1,4,2) -5.937525E-04 (1,4,4) 5.138877E-03 (1,5,3) 4.907028E-03
(1,4,4): (1,3,4) -5.332209E-03 (1,4,3) -5.138877E-03 (1,4,5) 2.809692E-02 (1,5,4) 5.522591E-02
(1,4,5): (1,3,5) -3.167635E-02 (1,4,4) -2.809692E-02 (1,4,6) 4.198711E-03 (1,5,5) 0.439050
(1,4,6): (1,3,6) -3.555044E-02 (1,4,5) -4.198711E-03 (1,4,7) -4.198710E-03 (1,5,6) 0.478854
(1,4,7): (1,3,7) -3.167635E-02 (1,4,6) 4.198710E-03 (1,4,8) -2.809690E-02 (1,5,7) 0.439050
(1,4,8): (1,3,8) -5.332229E-03 (1,4,7) 2.809690E-02 (1,4,9) -5.138555E-03 (1,5,8) 5.522600E-02
(1,4,9): (1,3,9) -5.923461E-04 (1,4,8) 5.138555E-03 (1,4,10) -5.893600E-04 (1,5,9) 4.908587E-03
(1,4,10): (1,3,10) -5.733089E-05 (1,4,9) 5.893600E-04 (1,5,10) 3.927975E-04
(1,5,1): (1,4,1) -2.642446E-05 (1,5,2) 3.961211E-04 (1,6,1) 8.318920E-05
(1,5,2): (1,4,2) -3.680305E-04 (1,5,1) -3.961211E-04 (1,5,3) 5.132760E-03 (1,6,2) 1.425449E-03
(1,5,3): (1,4,3) -4.907028E-03 (1,5,2) -5.132760E-03 (1,5,4) 5.545787E-02 (1,6,3) 2.427643E-02
(1,5,4): (1,4,4) -5.522591E-02 (1,5,3) -5.545787E-02 (1,5,5) 0.411818 (1,6,4) 0.379680
(1,5,5): (1,4,5) -0.439050 (1,5,4) -0.411818 (1,5,6) 4.383165E-02 (1,6,5) 5.15941
(1,5,6): (1,4,6) -0.478854 (1,5,5) -4.383165E-02 (1,5,7) -4.383164E-02 (1,6,6) 5.38462
(1,5,7): (1,4,7) -0.439050 (1,5,6) 4.383164E-02 (1,5,8) -0.411818 (1,6,7) 5.15941
(1,5,8): (1,4,8) -5.522600E-02 (1,5,7) 0.411818 (1,5,9) -5.545608E-02 (1,6,8) 0.379681
(1,5,9): (1,4,9) -4.908587E-03 (1,5,8) 5.545608E-02 (1,5,10) -5.105158E-03 (1,6,9) 2.428063E-02
(1,5,10): (1,4,10) -3.927975E-04 (1,5,9) 5.105158E-03 (1,6,10) 1.504223E-03
(1,6,1): (1,5,1) -8.318920E-05 (1,6,2) 1.738385E-03 (1,7,1) -9.311929E-05
(1,6,2): (1,5,2) -1.425449E-03 (1,6,1) -1.738385E-03 (1,6,3) 2.798459E-02 (1,7,2) -1.572895E-03
(1,6,3): (1,5,3) -2.427643E-02 (1,6,2) -2.798459E-02 (1,6,4) 0.410972 (1,7,3) -2.642671E-02
(1,6,4): (1,5,4) -0.379680 (1,6,3) -0.410972 (1,6,5) 5.19299 (1,7,4) -0.407850
(1,6,5): (1,5,5) -5.15941 (1,6,4) -5.19299 (1,6,6) 0.259243 (1,7,5) -5.47979
(1,6,6): (1,5,6) -5.38462 (1,6,5) -0.259243 (1,6,7) -0.259243 (1,7,6) -7.78052
(1,6,7): (1,5,7) -5.15941 (1,6,6) 0.259243 (1,6,8) -5.19299 (1,7,7) -5.47979
(1,6,8): (1,5,8) -0.379681 (1,6,7) 5.19299 (1,6,9) -0.410966 (1,7,8) -0.407850
(1,6,9): (1,5,9) -2.428063E-02 (1,6,8) 0.410966 (1,6,10) -2.788238E-02 (1,7,9) -2.643146E-02
(1,6,10): (1,5,10) -1.504223E-03 (1,6,9) 2.788238E-02 (1,7,10) -1.661004E-03
(1,7,1): (1,6,1) 9.311929E-05 (1,7,2) 2.586069E-04 (1,8,1) -4.644527E-05
(1,7,2): (1,6,2) 1.572895E-03 (1,7,1) -2.586069E-04 (1,7,3) 3.130393E-03 (1,8,2) -7.459378E-04
(1,7,3): (1,6,3) 2.642671E-02 (1,7,2) -3.130393E-03 (1,7,4) 2.953725E-02 (1,8,3) -1.197502E-02
(1,7,4): (1,6,4) 0.407850 (1,7,3) -2.953725E-02 (1,7,5) 0.134096 (1,8,4) -0.178382
(1,7,5): (1,6,5) 5.47979 (1,7,4) -0.134096 (1,7,6) -1.92411 (1,8,5) -2.38707
(1,7,6): (1,6,6) 7.78052 (1,7,5) 1.92411 (1,7,7) 1.92411 (1,8,6) -26.8590
(1,7,7): (1,6,7) 5.47979 (1,7,6) -1.92411 (1,7,8) -0.134096 (1,8,7) -2.38707
(1,7,8): (1,6,8) 0.407850 (1,7,7) 0.134096 (1,7,9) -2.953599E-02 (1,8,8) -0.178382
(1,7,9): (1,6,9) 2.643146E-02 (1,7,8) 2.953599E-02 (1,7,10) -3.111566E-03 (1,8,9) -1.197750E-02
(1,7,10): (1,6,10) 1.661004E-03 (1,7,9) 3.111566E-03 (1,8,10) -7.897625E-04
(1,8,1): (1,7,1) 4.644527E-05 (1,8,2) -4.408841E-04 (1,9,1) 4.416678E-05
(1,8,2): (1,7,2) 7.459378E-04 (1,8,1) 4.408841E-04 (1,8,3) -8.098354E-03 (1,9,2) 7.148941E-04
(1,8,3): (1,7,3) 1.197502E-02 (1,8,2) 8.098354E-03 (1,8,4) -0.136809 (1,9,3) 1.156967E-02
(1,8,4): (1,7,4) 0.178382 (1,8,3) 0.136809 (1,8,5) -2.06788 (1,9,4) 0.173910
(1,8,5): (1,7,5) 2.38707 (1,8,4) 2.06788 (1,8,6) -26.2807 (1,9,5) 2.35158
(1,8,6): (1,7,6) 26.8590 (1,8,5) 26.2807 (1,8,7) 26.2807 (1,9,6) 26.8106
(1,8,7): (1,7,7) 2.38707 (1,8,6) -26.2807 (1,8,8) 2.06788 (1,9,7) 2.35158
(1,8,8): (1,7,8) 0.178382 (1,8,7) -2.06788 (1,8,9) 0.136808 (1,9,8) 0.173910
(1,8,9): (1,7,9) 1.197750E-02 (1,8,8) -0.136808 (1,8,10) 8.075832E-03 (1,9,9) 1.157201E-02
(1,8,10): (1,7,10) 7.897625E-04 (1,8,9) -8.075832E-03 (1,9,10) 7.565872E-04
(1,9,1): (1,8,1) -4.416678E-05 (1,9,2) 2.298419E-04 (1,10,1) 8.686207E-05
(1,9,2): (1,8,2) -7.148941E-04 (1,9,1) -2.298419E-04 (1,9,3) 2.756123E-03 (1,10,2) 1.466251E-03
(1,9,3): (1,8,3) -1.156967E-02 (1,9,2) -2.756123E-03 (1,9,4) 2.547728E-02 (1,10,3) 2.461608E-02
(1,9,4): (1,8,4) -0.173910 (1,9,3) -2.547728E-02 (1,9,5) 0.103854 (1,10,4) 0.379558
(1,9,5): (1,8,5) -2.35158 (1,9,4) -0.103854 (1,9,6) -1.92734 (1,10,5) 5.09503
(1,9,6): (1,8,6) -26.8106 (1,9,5) 1.92734 (1,9,7) 1.92734 (1,10,6) 7.36042
(1,9,7): (1,8,7) -2.35158 (1,9,6) -1.92734 (1,9,8) -0.103854 (1,10,7) 5.09503
(1,9,8): (1,8,8) -0.173910 (1,9,7) 0.103854 (1,9,9) -2.547615E-02 (1,10,8) 0.379558
(1,9,9): (1,8,9) -1.157201E-02 (1,9,8) 2.547615E-02 (1,9,10) -2.739291E-03 (1,10,9) 2.462052E-02
(1,9,10): (1,8,10) -7.565872E-04 (1,9,9) 2.739291E-03 (1,10,10) 1.548438E-03
(1,10,1): (1,9,1) -8.686207E-05 (1,10,2) 1.609233E-03 (1,11,1) -7.697946E-05
(1,10,2): (1,9,2) -1.466251E-03 (1,10,1) -1.609233E-03 (1,10,3) 2.590625E-02 (1,11,2) -1.319305E-03
(1,10,3): (1,9,3) -2.461608E-02 (1,10,2) -2.590625E-02 (1,10,4) 0.380422 (1,11,3) -2.247089E-02
(1,10,4): (1,9,4) -0.379558 (1,10,3) -0.380422 (1,10,5) 4.80705 (1,11,4) -0.351441
(1,10,5): (1,9,5) -5.09503 (1,10,4) -4.80705 (1,10,6) 0.229835 (1,11,5) -4.77597
(1,10,6): (1,9,6) -7.36042 (1,10,5) -0.229835 (1,10,7) -0.229835 (1,11,6) -4.97393
(1,10,7): (1,9,7) -5.09503 (1,10,6) 0.229835 (1,10,8) -4.80705 (1,11,7) -4.77597
(1,10,8): (1,9,8) -0.379558 (1,10,7) 4.80705 (1,10,9) -0.380417 (1,11,8) -0.351441
(1,10,9): (1,9,9) -2.462052E-02 (1,10,8) 0.380417 (1,10,10) -2.581164E-02 (1,11,9) -2.247477E-02
(1,10,10): (1,9,10) -1.548438E-03 (1,10,9) 2.581164E-02 (1,11,10) -1.392199E-03
(1,11,1): (1,10,1) 7.697946E-05 (1,11,2) 3.669036E-04 (1,12,1) -2.447464E-05
(1,11,2): (1,10,2) 1.319305E-03 (1,11,1) -3.669036E-04 (1,11,3) 4.753937E-03 (1,12,2) -3.408754E-04
(1,11,3): (1,10,3) 2.247089E-02 (1,11,2) -4.753937E-03 (1,11,4) 5.135804E-02 (1,12,3) -4.544753E-03
(1,11,4): (1,10,4) 0.351441 (1,11,3) -5.135804E-02 (1,11,5) 0.381276 (1,12,4) -5.114259E-02
(1,11,5): (1,10,5) 4.77597 (1,11,4) -0.381276 (1,11,6) 3.993145E-02 (1,12,5) -0.406487
(1,11,6): (1,10,6) 4.97393 (1,11,5) -3.993145E-02 (1,11,7) -3.993144E-02 (1,12,6) -0.442710
(1,11,7): (1,10,7) 4.77597 (1,11,6) 3.993144E-02 (1,11,8) -0.381275 (1,12,7) -0.406487
(1,11,8): (1,10,8) 0.351441 (1,11,7) 0.381275 (1,11,9) -5.135639E-02 (1,12,8) -5.114268E-02
(1,11,9): (1,10,9) 2.247477E-02 (1,11,8) 5.135639E-02 (1,11,10) -4.728370E-03 (1,12,9) -4.546196E-03
(1,11,10): (1,10,10) 1.392199E-03 (1,11,9) 4.728370E-03 (1,12,10) -3.638141E-04
(1,12,1): (1,11,1) 2.447464E-05 (1,12,2) 5.050274E-05 (1,13,1) -4.150092E-06
(1,12,2): (1,11,2) 3.408754E-04 (1,12,1) -5.050274E-05 (1,12,3) 5.500510E-04 (1,13,2) -4.926140E-05
(1,12,3): (1,11,3) 4.544753E-03 (1,12,2) -5.500510E-04 (1,12,4) 4.760107E-03 (1,13,3) -5.484716E-04
(1,12,4): (1,11,4) 5.114259E-02 (1,12,3) -4.760107E-03 (1,12,5) 2.601970E-02 (1,13,4) -4.939197E-03
(1,12,5): (1,11,5) 0.406487 (1,12,4) -2.601970E-02 (1,12,6) 3.852369E-03 (1,13,5) -2.933535E-02
(1,12,6): (1,11,6) 0.442710 (1,12,5) -3.852369E-03 (1,12,7) -3.852367E-03 (1,13,6) -3.288882E-02
(1,12,7): (1,11,7) 0.406487 (1,12,6) 3.852367E-03 (1,12,8) -2.601968E-02 (1,13,7) -2.933535E-02
(1,12,8): (1,11,8) 5.114268E-02 (1,12,7) 2.601968E-02 (1,12,9) -4.759808E-03 (1,13,8) -4.939215E-03
(1,12,9): (1,11,9) 4.546196E-03 (1,12,8) 4.759808E-03 (1,12,10) -5.459809E-04 (1,13,9) -5.487475E-04
(1,12,10): (1,11,10) 3.638141E-04 (1,12,9) 5.459809E-04 (1,13,10) -5.311427E-05
(1,13,1): (1,12,1) 4.150092E-06 (1,13,2) 5.391435E-06 (1,14,1) -5.232508E-07
(1,13,2): (1,12,2) 4.926140E-05 (1,13,1) -5.391435E-06 (1,13,3) 5.084075E-05 (1,14,2) -5.425564E-06
(1,13,3): (1,12,3) 5.484716E-04 (1,13,2) -5.084075E-05 (1,13,4) 3.693888E-04 (1,14,3) -5.217189E-05
(1,13,4): (1,12,4) 4.939197E-03 (1,13,3) -3.693888E-04 (1,13,5) 1.624357E-03 (1,14,4) -3.958115E-04
(1,13,5): (1,12,5) 2.933535E-02 (1,13,4) -1.624357E-03 (1,13,6) 2.999286E-04 (1,14,5) -1.924574E-03
(1,13,6): (1,12,6) 3.288882E-02 (1,13,5) -2.999286E-04 (1,13,7) -2.999276E-04 (1,14,6) -2.203784E-03
(1,13,7): (1,12,7) 2.933535E-02 (1,13,6) 2.999276E-04 (1,13,8) -1.624353E-03 (1,14,7) -1.924574E-03
(1,13,8): (1,12,8) 4.939215E-03 (1,13,7) 1.624353E-03 (1,13,9) -3.693479E-04 (1,14,8) -3.958138E-04
(1,13,9): (1,12,9) 5.487475E-04 (1,13,8) 3.693479E-04 (1,13,10) -5.034764E-05 (1,14,9) -5.220996E-05
(1,13,10): (1,12,10) 5.311427E-05 (1,13,9) 5.034764E-05 (1,14,10) -5.906504E-06
(1,14,1): (1,13,1) 5.232508E-07 (1,14,2) 4.891226E-07 (1,15,1) -5.457735E-08
(1,14,2): (1,13,2) 5.425564E-06 (1,14,1) -4.891226E-07 (1,14,3) 4.094426E-06 (1,15,2) -5.035083E-07
(1,14,3): (1,13,3) 5.217189E-05 (1,14,2) -4.094426E-06 (1,14,4) 2.574937E-05 (1,15,3) -4.279946E-06
(1,14,4): (1,13,4) 3.958115E-04 (1,14,3) -2.574937E-05 (1,14,5) 9.559879E-05 (1,15,4) -2.826076E-05
(1,14,5): (1,13,5) 1.924574E-03 (1,14,4) -9.559879E-05 (1,14,6) 2.072435E-05 (1,15,5) -1.181724E-04
(1,14,6): (1,13,6) 2.203784E-03 (1,14,5) -2.072435E-05 (1,14,7) -2.072319E-05 (1,15,6) -1.374934E-04
(1,14,7): (1,13,7) 1.924574E-03 (1,14,6) 2.072319E-05 (1,14,8) -9.559742E-05 (1,15,7) -1.181722E-04
(1,14,8): (1,13,8) 3.958138E-04 (1,14,7) 9.559742E-05 (1,14,9) -2.574414E-05 (1,15,8) -2.826076E-05
(1,14,9): (1,13,9) 5.220996E-05 (1,14,8) 2.574414E-05 (1,14,10) -4.044185E-06 (1,15,9) -4.283958E-06
(1,14,10): (1,13,10) 5.906504E-06 (1,14,9) 4.044185E-06 (1,15,10) -5.530284E-07
(1,15,1): (1,14,1) 5.457735E-08 (1,15,2) 4.019166E-08
(1,15,2): (1,14,2) 5.035083E-07 (1,15,1) -4.019166E-08 (1,15,3) 3.179889E-07
(1,15,3): (1,14,3) 4.279946E-06 (1,15,2) -3.179889E-07 (1,15,4) 1.768552E-06
(1,15,4): (1,14,4) 2.826076E-05 (1,15,3) -1.768552E-06 (1,15,5) 5.687181E-06
(1,15,5): (1,14,5) 1.181724E-04 (1,15,4) -5.687181E-06 (1,15,6) 1.403326E-06
(1,15,6): (1,14,6) 1.374934E-04 (1,15,5) -1.403326E-06 (1,15,7) -1.401974E-06
(1,15,7): (1,14,7) 1.181722E-04 (1,15,6) 1.401974E-06 (1,15,8) -5.685991E-06
(1,15,8): (1,14,8) 2.826076E-05 (1,15,7) 5.685991E-06 (1,15,9) -1.767342E-06
(1,15,9): (1,14,9) 4.283958E-06 (1,15,8) 1.767342E-06 (1,15,10) -3.132556E-07
(1,15,10): (1,14,10) 5.530284E-07 (1,15,9) 3.132556E-07

 WEL PACKAGE (WEL-1) FLOW RATES   PERIOD      2   STEP        3
 ----------------------------------------------------------------------------------------
   NUMBER   CELLID                    RATE       NAME                                    
 ----------------------------------------------------------------------------------------
     1      (1,8,6)              -270.00000      WEL                                     
 ----------------------------------------------------------------------------------------




 API PACKAGE (MAR) FLOW RATES   PERIOD      2   STEP        3
 -----------------------------------------------
   NUMBER   CELLID                    RATE      
 -----------------------------------------------
     1      (1,6,5)               46.666667     
     2      (1,6,6)               46.666667     
     3      (1,6,7)               46.666667     
     4      (1,10,5)              43.333333     
     5      (1,10,6)              43.333333     
     6      (1,10,7)              43.333333     
 -----------------------------------------------



1
  HEAD IN LAYER   1 AT END OF TIME STEP   3 IN STRESS PERIOD    2
  ---------------------------------------------------------------------------

            1           2           3           4           5           6           7           8           9          10
 ........................................................................................................................
   1   6.7329E-10  5.4807E-09  4.0263E-08  2.3148E-07  8.4555E-07  9.9756E-07  8.4552E-07  2.3142E-07  4.0209E-08  5.9272E-09
   2   6.5607E-09  5.9803E-08  5.0214E-07  3.2816E-06  1.3602E-05  1.5849E-05  1.3602E-05  3.2816E-06  5.0255E-07  6.5609E-08
   3   6.3024E-08  6.4531E-07  6.1330E-06  4.6005E-05  2.2137E-04  2.5396E-04  2.2137E-04  4.6005E-05  6.1375E-06  7.0306E-07
   4   5.1096E-07  5.9625E-06  6.5337E-05  5.7920E-04  3.3879E-03  3.8076E-03  3.3879E-03  5.7920E-04  6.5372E-05  6.4361E-06
   5   3.1534E-06  4.2765E-05  5.5601E-04  6.0984E-03  4.7087E-02  5.1448E-02  4.7087E-02  6.0984E-03  5.5620E-04  4.5716E-05
   6   1.1472E-05  1.8531E-04  2.9829E-03  4.3901E-02  0.5367      0.5613      0.5367      4.3901E-02  2.9835E-03  1.9614E-04
   7   2.1604E-06  2.8021E-05  3.4105E-04  3.2938E-03  1.6681E-02 -0.1754      1.6681E-02  3.2938E-03  3.4118E-04  3.0038E-05
   8  -2.4841E-06 -4.6573E-05 -8.5641E-04 -1.4538E-02 -0.2216      -2.909     -0.2216     -1.4538E-02 -8.5653E-04 -4.8938E-05
   9   1.9326E-06  2.4917E-05  3.0052E-04  2.8475E-03  1.3219E-02 -0.1793      1.3219E-02  2.8475E-03  3.0064E-04  2.6720E-05
  10   1.0619E-05  1.7154E-04  2.7614E-03  4.0650E-02  0.4985      0.5204      0.4985      4.0650E-02  2.7620E-03  1.8156E-04
  11   2.9208E-06  3.9611E-05  5.1498E-04  5.6479E-03  4.3610E-02  4.7584E-02  4.3610E-02  5.6479E-03  5.1516E-04  4.2344E-05
  12   4.7335E-07  5.5236E-06  6.0528E-05  5.3651E-04  3.1377E-03  3.5228E-03  3.1377E-03  5.3652E-04  6.0561E-05  5.9628E-06
  13   5.8338E-08  5.9748E-07  5.6816E-06  4.2620E-05  2.0505E-04  2.3504E-04  2.0505E-04  4.2621E-05  5.6861E-06  6.5138E-07
  14   6.0131E-09  5.4925E-08  4.6437E-07  3.0393E-06  1.2599E-05  1.4672E-05  1.2599E-05  3.0396E-06  4.6514E-07  6.0726E-08
  15   5.5533E-10  4.5745E-09  3.6373E-08  2.1323E-07  7.8195E-07  9.2228E-07  7.8208E-07  2.1348E-07  3.6749E-08  5.4231E-09

 HEAD WILL BE SAVED ON UNIT 1043 AT END OF TIME STEP    3, STRESS PERIOD    2


  VOLUME BUDGET FOR ENTIRE MODEL AT END OF TIME STEP    3, STRESS PERIOD   2
  ---------------------------------------------------------------------------------------------------

     CUMULATIVE VOLUME      L**3       RATES FOR THIS TIME STEP      L**3/T          PACKAGE NAME    
     ------------------                 ------------------------                     ----------------

           IN:                                      IN:
           ---                                      ---
              STO-SS =           3.3068                STO-SS =       9.7398E-02     STORAGE                          
              STO-SY =        7476.1595                STO-SY =         236.8267     STORAGE                          
                 WEL =           0.0000                   WEL =           0.0000     WEL-1                            
                 API =        8100.0000                   API =         270.0000     MAR                              
                 CHD =       2.8247E-08                   CHD =           0.0000     CHD_0                            

            TOTAL IN =       15579.4663              TOTAL IN =         506.9241

          OUT:                                     OUT:
          ----                                     ----
              STO-SS =           3.8218                STO-SS =           0.1226     STORAGE                          
              STO-SY =        7475.6445                STO-SY =         236.8015     STORAGE                          
                 WEL =        8100.0000                   WEL =         270.0000     WEL-1                            
                 API =           0.0000                   API =           0.0000     MAR                              
                 CHD =       3.0388E-08                   CHD =           0.0000     CHD_0                            

           TOTAL OUT =       15579.4663             TOTAL OUT =         506.9241

            IN - OUT =      -1.7384E-08              IN - OUT =      -6.7723E-10

 PERCENT DISCREPANCY =          -0.00     PERCENT DISCREPANCY =          -0.00




         TIME SUMMARY AT END OF TIME STEP    3 IN STRESS PERIOD    2
                    SECONDS     MINUTES      HOURS       DAYS        YEARS
                    -----------------------------------------------------------
   TIME STEP LENGTH 8.64000E+05  14400.      240.00      10.000     2.73785E-02
 STRESS PERIOD TIME 2.59200E+06  43200.      720.00      30.000     8.21355E-02
         TOTAL TIME 2.67840E+06  44640.      744.00      31.000     8.48734E-02


end timestep


start timestep kper="2" kstp="4" mode="normal"

 UBDSV1 SAVING           STO-SS ON UNIT   1042 AT TIME STEP      4, STRESS PERIOD      2
 UBDSV1 SAVING           STO-SY ON UNIT   1042 AT TIME STEP      4, STRESS PERIOD      2
 UBDSV1 SAVING     FLOW-JA-FACE ON UNIT   1042 AT TIME STEP      4, STRESS PERIOD      2
 UBDSV06 SAVING       DATA-SPDIS IN MODEL GWF              PACKAGE NPF             CONNECTED TO MODEL GWF              PACKAGE NPF              ON UNIT   1042 AT TIME STEP      4, STRESS PERIOD      2
 UBDSV06 SAVING              WEL IN MODEL GWF              PACKAGE GWF             CONNECTED TO MODEL GWF              PACKAGE WEL-1            ON UNIT   1042 AT TIME STEP      4, STRESS PERIOD      2
 UBDSV06 SAVING              API IN MODEL GWF              PACKAGE GWF             CONNECTED TO MODEL GWF              PACKAGE MAR              ON UNIT   1042 AT TIME STEP      4, STRESS PERIOD      2
 UBDSV06 SAVING              CHD IN MODEL GWF              PACKAGE GWF             CONNECTED TO MODEL GWF              PACKAGE CHD_0            ON UNIT   1042 AT TIME STEP      4, STRESS PERIOD      2

    CALCULATED INTERCELL FLOW FOR PERIOD 2 STEP 4
(1,1,1): (1,1,2) 1.633624E-07 (1,2,1) 2.046053E-07
(1,1,2): (1,1,1) -1.633624E-07 (1,1,3) 1.110345E-06 (1,2,2) 1.727902E-06
(1,1,3): (1,1,2) -1.110345E-06 (1,1,4) 5.595071E-06 (1,2,3) 1.344823E-05
(1,1,4): (1,1,3) -5.595071E-06 (1,1,5) 1.636480E-05 (1,2,4) 8.085783E-05
(1,1,5): (1,1,4) -1.636480E-05 (1,1,6) 4.353209E-06 (1,2,5) 3.082231E-04
(1,1,6): (1,1,5) -4.353209E-06 (1,1,7) -4.353506E-06 (1,2,6) 3.616097E-04
(1,1,7): (1,1,6) 4.353506E-06 (1,1,8) -1.636497E-05 (1,2,7) 3.082232E-04
(1,1,8): (1,1,7) 1.636497E-05 (1,1,9) -5.593371E-06 (1,2,8) 8.085930E-05
(1,1,9): (1,1,8) 5.593371E-06 (1,1,10) -1.090687E-06 (1,2,9) 1.346587E-05
(1,1,10): (1,1,9) 1.090687E-06 (1,2,10) 1.912997E-06
(1,2,1): (1,1,1) -2.046053E-07 (1,2,2) 1.686659E-06 (1,3,1) 1.801992E-06
(1,2,2): (1,1,2) -1.727902E-06 (1,2,1) -1.686659E-06 (1,2,3) 1.283067E-05 (1,3,2) 1.696432E-05
(1,2,3): (1,1,3) -1.344823E-05 (1,2,2) -1.283067E-05 (1,2,4) 7.300467E-05 (1,3,3) 1.478853E-04
(1,2,4): (1,1,4) -8.085783E-05 (1,2,3) -7.300467E-05 (1,2,5) 2.437299E-04 (1,3,4) 1.009394E-03
(1,2,5): (1,1,5) -3.082231E-04 (1,2,4) -2.437299E-04 (1,2,6) 5.773968E-05 (1,3,5) 4.405438E-03
(1,2,6): (1,1,6) -3.616097E-04 (1,2,5) -5.773968E-05 (1,2,7) -5.773990E-05 (1,3,6) 5.093981E-03
(1,2,7): (1,1,7) -3.082232E-04 (1,2,6) 5.773990E-05 (1,2,8) -2.437287E-04 (1,3,7) 4.405439E-03
(1,2,8): (1,1,8) -8.085930E-05 (1,2,7) 2.437287E-04 (1,2,9) -7.298680E-05 (1,3,8) 1.009405E-03
(1,2,9): (1,1,9) -1.346587E-05 (1,2,8) 7.298680E-05 (1,2,10) -1.264356E-05 (1,3,9) 1.480290E-04
(1,2,10): (1,1,10) -1.912997E-06 (1,2,9) 1.264356E-05 (1,3,10) 1.860994E-05
(1,3,1): (1,2,1) -1.801992E-06 (1,3,2) 1.684899E-05 (1,4,1) 1.299660E-05
(1,3,2): (1,2,2) -1.696432E-05 (1,3,1) -1.684899E-05 (1,3,3) 1.437516E-04 (1,4,2) 1.387392E-04
(1,3,3): (1,2,3) -1.478853E-04 (1,3,2) -1.437516E-04 (1,3,4) 9.345124E-04 (1,4,3) 1.384190E-03
(1,3,4): (1,2,4) -1.009394E-03 (1,3,3) -9.345124E-04 (1,3,5) 3.639749E-03 (1,4,4) 1.105219E-02
(1,3,5): (1,2,5) -4.405438E-03 (1,3,4) -3.639749E-03 (1,3,6) 7.462521E-04 (1,4,5) 5.778378E-02
(1,3,6): (1,2,6) -5.093981E-03 (1,3,5) -7.462521E-04 (1,3,7) -7.462515E-04 (1,4,6) 6.548324E-02
(1,3,7): (1,2,7) -4.405439E-03 (1,3,6) 7.462515E-04 (1,3,8) -3.639737E-03 (1,4,7) 5.778378E-02
(1,3,8): (1,2,8) -1.009405E-03 (1,3,7) 3.639737E-03 (1,3,9) -9.343623E-04 (1,4,8) 1.105226E-02
(1,3,9): (1,2,9) -1.480290E-04 (1,3,8) 9.343623E-04 (1,3,10) -1.420626E-04 (1,4,9) 1.385133E-03
(1,3,10): (1,2,10) -1.860994E-05 (1,3,9) 1.420626E-04 (1,4,10) 1.507193E-04
(1,4,1): (1,3,1) -1.299660E-05 (1,4,2) 1.425916E-04 (1,5,1) 6.887866E-05
(1,4,2): (1,3,2) -1.387392E-04 (1,4,1) -1.425916E-04 (1,4,3) 1.389203E-03 (1,5,2) 8.530114E-04
(1,4,3): (1,3,3) -1.384190E-03 (1,4,2) -1.389203E-03 (1,4,4) 1.060247E-02 (1,5,3) 1.004843E-02
(1,4,4): (1,3,4) -1.105219E-02 (1,4,3) -1.060247E-02 (1,4,5) 5.036788E-02 (1,5,4) 9.847099E-02
(1,4,5): (1,3,5) -5.778378E-02 (1,4,4) -5.036788E-02 (1,4,6) 8.441335E-03 (1,5,5) 0.672098
(1,4,6): (1,3,6) -6.548324E-02 (1,4,5) -8.441335E-03 (1,4,7) -8.441329E-03 (1,5,6) 0.739561
(1,4,7): (1,3,7) -5.778378E-02 (1,4,6) 8.441329E-03 (1,4,8) -5.036780E-02 (1,5,7) 0.672098
(1,4,8): (1,3,8) -1.105226E-02 (1,4,7) 5.036780E-02 (1,4,9) -1.060144E-02 (1,5,8) 9.847128E-02
(1,4,9): (1,3,9) -1.385133E-03 (1,4,8) 1.060144E-02 (1,4,10) -1.376476E-03 (1,5,9) 1.005290E-02
(1,4,10): (1,3,10) -1.507193E-04 (1,4,9) 1.376476E-03 (1,5,10) 9.171159E-04
(1,5,1): (1,4,1) -6.887866E-05 (1,5,2) 9.267249E-04 (1,6,1) 1.901358E-04
(1,5,2): (1,4,2) -8.530114E-04 (1,5,1) -9.267249E-04 (1,5,3) 1.058467E-02 (1,6,2) 2.860284E-03
(1,5,3): (1,4,3) -1.004843E-02 (1,5,2) -1.058467E-02 (1,5,4) 9.902551E-02 (1,6,3) 4.234684E-02
(1,5,4): (1,4,4) -9.847099E-02 (1,5,3) -9.902551E-02 (1,5,5) 0.623722 (1,6,4) 0.564793
(1,5,5): (1,4,5) -0.672098 (1,5,4) -0.623722 (1,5,6) 7.546658E-02 (1,6,5) 6.39980
(1,5,6): (1,4,6) -0.739561 (1,5,5) -7.546658E-02 (1,5,7) -7.546656E-02 (1,6,6) 6.69539
(1,5,7): (1,4,7) -0.672098 (1,5,6) 7.546656E-02 (1,5,8) -0.623721 (1,6,7) 6.39980
(1,5,8): (1,4,8) -9.847128E-02 (1,5,7) 0.623721 (1,5,9) -9.902031E-02 (1,6,8) 0.564793
(1,5,9): (1,4,9) -1.005290E-02 (1,5,8) 9.902031E-02 (1,5,10) -1.051230E-02 (1,6,9) 4.235749E-02
(1,5,10): (1,4,10) -9.171159E-04 (1,5,9) 1.051230E-02 (1,6,10) 3.039149E-03
(1,6,1): (1,5,1) -1.901358E-04 (1,6,2) 3.596893E-03 (1,7,1) -2.187807E-04
(1,6,2): (1,5,2) -2.860284E-03 (1,6,1) -3.596893E-03 (1,6,3) 5.007428E-02 (1,7,2) -3.242489E-03
(1,6,3): (1,5,3) -4.234684E-02 (1,6,2) -5.007428E-02 (1,6,4) 0.621765 (1,7,3) -4.732705E-02
(1,6,4): (1,5,4) -0.564793 (1,6,3) -0.621765 (1,6,5) 6.46189 (1,7,4) -0.622376
(1,6,5): (1,5,5) -6.39980 (1,6,4) -6.46189 (1,6,6) 0.355816 (1,7,5) -6.97199
(1,6,6): (1,5,6) -6.69539 (1,6,5) -0.355816 (1,6,7) -0.355815 (1,7,6) -10.3321
(1,6,7): (1,5,7) -6.39980 (1,6,6) 0.355815 (1,6,8) -6.46189 (1,7,7) -6.97199
(1,6,8): (1,5,8) -0.564793 (1,6,7) 6.46189 (1,6,9) -0.621750 (1,7,8) -0.622377
(1,6,9): (1,5,9) -4.235749E-02 (1,6,8) 0.621750 (1,6,10) -4.983358E-02 (1,7,9) -4.733946E-02
(1,6,10): (1,5,10) -3.039149E-03 (1,6,9) 4.983358E-02 (1,7,10) -3.448119E-03
(1,7,1): (1,6,1) 2.187807E-04 (1,7,2) 5.731733E-04 (1,8,1) -1.184555E-04
(1,7,2): (1,6,2) 3.242489E-03 (1,7,1) -5.731733E-04 (1,7,3) 5.988507E-03 (1,8,2) -1.689904E-03
(1,7,3): (1,6,3) 4.732705E-02 (1,7,2) -5.988507E-03 (1,7,4) 4.671952E-02 (1,8,3) -2.390501E-02
(1,7,4): (1,6,4) 0.622376 (1,7,3) -4.671952E-02 (1,7,5) 0.140545 (1,8,4) -0.308534
(1,7,5): (1,6,5) 6.97199 (1,7,4) -0.140545 (1,7,6) -2.79129 (1,8,5) -3.50441
(1,7,6): (1,6,6) 10.3321 (1,7,5) 2.79129 (1,7,7) 2.79129 (1,8,6) -32.6873
(1,7,7): (1,6,7) 6.97199 (1,7,6) -2.79129 (1,7,8) -0.140544 (1,8,7) -3.50441
(1,7,8): (1,6,8) 0.622377 (1,7,7) 0.140544 (1,7,9) -4.671598E-02 (1,8,8) -0.308534
(1,7,9): (1,6,9) 4.733946E-02 (1,7,8) 4.671598E-02 (1,7,10) -5.941138E-03 (1,8,9) -2.391196E-02
(1,7,10): (1,6,10) 3.448119E-03 (1,7,9) 5.941138E-03 (1,8,10) -1.800967E-03
(1,8,1): (1,7,1) 1.184555E-04 (1,8,2) -9.982679E-04 (1,9,1) 1.123848E-04
(1,8,2): (1,7,2) 1.689904E-03 (1,8,1) 9.982679E-04 (1,8,3) -1.622525E-02 (1,9,2) 1.616382E-03
(1,8,3): (1,7,3) 2.390501E-02 (1,8,2) 1.622525E-02 (1,8,4) -0.237730 (1,9,3) 2.305715E-02
(1,8,4): (1,7,4) 0.308534 (1,8,3) 0.237730 (1,8,5) -3.04122 (1,9,4) 0.300389
(1,8,5): (1,7,5) 3.50441 (1,8,4) 3.04122 (1,8,6) -31.7602 (1,9,5) 3.44853
(1,8,6): (1,7,6) 32.6873 (1,8,5) 31.7602 (1,8,7) 31.7602 (1,9,6) 32.6076
(1,8,7): (1,7,7) 3.50441 (1,8,6) -31.7602 (1,8,8) 3.04122 (1,9,7) 3.44853
(1,8,8): (1,7,8) 0.308534 (1,8,7) -3.04122 (1,8,9) 0.237727 (1,9,8) 0.300389
(1,8,9): (1,7,9) 2.391196E-02 (1,8,8) -0.237727 (1,8,10) 1.616850E-02 (1,9,9) 2.306370E-02
(1,8,10): (1,7,10) 1.800967E-03 (1,8,9) -1.616850E-02 (1,9,10) 1.721804E-03
(1,9,1): (1,8,1) -1.123848E-04 (1,9,2) 5.057224E-04 (1,10,1) 2.042785E-04
(1,9,2): (1,8,2) -1.616382E-03 (1,9,1) -5.057224E-04 (1,9,3) 5.214325E-03 (1,10,2) 3.025727E-03
(1,9,3): (1,8,3) -2.305715E-02 (1,9,2) -5.214325E-03 (1,9,4) 3.944389E-02 (1,10,3) 4.412984E-02
(1,9,4): (1,8,4) -0.300389 (1,9,3) -3.944389E-02 (1,9,5) 9.460340E-02 (1,10,4) 0.579792
(1,9,5): (1,8,5) -3.44853 (1,9,4) -9.460340E-02 (1,9,6) -2.79673 (1,10,5) 6.48942
(1,9,6): (1,8,6) -32.6076 (1,9,5) 2.79673 (1,9,7) 2.79673 (1,10,6) 9.79444
(1,9,7): (1,8,7) -3.44853 (1,9,6) -2.79673 (1,9,8) -9.460318E-02 (1,10,7) 6.48942
(1,9,8): (1,8,8) -0.300389 (1,9,7) 9.460318E-02 (1,9,9) -3.944072E-02 (1,10,8) 0.579793
(1,9,9): (1,8,9) -2.306370E-02 (1,9,8) 3.944072E-02 (1,9,10) -5.172196E-03 (1,10,9) 4.414143E-02
(1,9,10): (1,8,10) -1.721804E-03 (1,9,9) 5.172196E-03 (1,10,10) 3.217721E-03
(1,10,1): (1,9,1) -2.042785E-04 (1,10,2) 3.327179E-03 (1,11,1) -1.757878E-04
(1,10,2): (1,9,2) -3.025727E-03 (1,10,1) -3.327179E-03 (1,10,3) 4.631933E-02 (1,11,2) -2.645010E-03
(1,10,3): (1,9,3) -4.412984E-02 (1,10,2) -4.631933E-02 (1,10,4) 0.575082 (1,11,3) -3.916368E-02
(1,10,4): (1,9,4) -0.579792 (1,10,3) -0.575082 (1,10,5) 5.97759 (1,11,4) -0.522346
(1,10,5): (1,9,5) -6.48942 (1,10,4) -5.97759 (1,10,6) 0.311662 (1,11,5) -5.92015
(1,10,6): (1,9,6) -9.79444 (1,10,5) -0.311662 (1,10,7) -0.311662 (1,11,6) -6.17564
(1,10,7): (1,9,7) -6.48942 (1,10,6) 0.311662 (1,10,8) -5.97759 (1,11,7) -5.92015
(1,10,8): (1,9,8) -0.579793 (1,10,7) 5.97759 (1,10,9) -0.575067 (1,11,8) -0.522346
(1,10,9): (1,9,9) -4.414143E-02 (1,10,8) 0.575067 (1,10,10) -4.609670E-02 (1,11,9) -3.917352E-02
(1,10,10): (1,9,10) -3.217721E-03 (1,10,9) 4.609670E-02 (1,11,10) -2.810379E-03
(1,11,1): (1,10,1) 1.757878E-04 (1,11,2) 8.579395E-04 (1,12,1) -6.376434E-05
(1,11,2): (1,10,2) 2.645010E-03 (1,11,1) -8.579395E-04 (1,11,3) 9.798054E-03 (1,12,2) -7.896550E-04
(1,11,3): (1,10,3) 3.916368E-02 (1,11,2) -9.798054E-03 (1,11,4) 9.164787E-02 (1,12,3) -9.301288E-03
(1,11,4): (1,10,4) 0.522346 (1,11,3) -9.164787E-02 (1,11,5) 0.577054 (1,12,4) -9.113278E-02
(1,11,5): (1,10,5) 5.92015 (1,11,4) -0.577054 (1,11,6) 6.852444E-02 (1,12,5) -0.621805
(1,11,6): (1,10,6) 6.17564 (1,11,5) -6.852444E-02 (1,11,7) -6.852442E-02 (1,12,6) -0.682967
(1,11,7): (1,10,7) 5.92015 (1,11,6) 6.852442E-02 (1,11,8) -0.577053 (1,12,7) -0.621805
(1,11,8): (1,10,8) 0.522346 (1,11,7) 0.577053 (1,11,9) -9.164305E-02 (1,12,8) -9.113305E-02
(1,11,9): (1,10,9) 3.917352E-02 (1,11,8) 9.164305E-02 (1,11,10) -9.731049E-03 (1,12,9) -9.305420E-03
(1,11,10): (1,10,10) 2.810379E-03 (1,11,9) 9.731049E-03 (1,12,10) -8.489989E-04
(1,12,1): (1,11,1) 6.376434E-05 (1,12,2) 1.320484E-04 (1,13,1) -1.203646E-05
(1,12,2): (1,11,2) 7.896550E-04 (1,12,1) -1.320484E-04 (1,12,3) 1.286379E-03 (1,13,2) -1.284820E-04
(1,12,3): (1,11,3) 9.301288E-03 (1,12,2) -1.286379E-03 (1,12,4) 9.815950E-03 (1,13,3) -1.281726E-03
(1,12,4): (1,11,4) 9.113278E-02 (1,12,3) -9.815950E-03 (1,12,5) 4.661519E-02 (1,13,4) -1.023233E-02
(1,12,5): (1,11,5) 0.621805 (1,12,4) -4.661519E-02 (1,12,6) 7.730898E-03 (1,13,5) -5.348102E-02
(1,12,6): (1,11,6) 0.682967 (1,12,5) -7.730898E-03 (1,12,7) -7.730892E-03 (1,13,6) -6.052953E-02
(1,12,7): (1,11,7) 0.621805 (1,12,6) 7.730892E-03 (1,12,8) -4.661512E-02 (1,13,7) -5.348103E-02
(1,12,8): (1,11,8) 9.113305E-02 (1,12,7) 4.661512E-02 (1,12,9) -9.815001E-03 (1,13,8) -1.023240E-02
(1,12,9): (1,11,9) 9.305420E-03 (1,12,8) 9.815001E-03 (1,12,10) -1.274592E-03 (1,13,9) -1.282598E-03
(1,12,10): (1,11,10) 8.489989E-04 (1,12,9) 1.274592E-03 (1,13,10) -1.395764E-04
(1,13,1): (1,12,1) 1.203646E-05 (1,13,2) 1.560284E-05 (1,14,1) -1.669271E-06
(1,13,2): (1,12,2) 1.284820E-04 (1,13,1) -1.560284E-05 (1,13,3) 1.331349E-04 (1,14,2) -1.571367E-05
(1,13,3): (1,12,3) 1.281726E-03 (1,13,2) -1.331349E-04 (1,13,4) 8.653814E-04 (1,14,3) -1.369677E-04
(1,13,4): (1,12,4) 1.023233E-02 (1,13,3) -8.653814E-04 (1,13,5) 3.369468E-03 (1,14,4) -9.347379E-04
(1,13,5): (1,12,5) 5.348102E-02 (1,13,4) -3.369468E-03 (1,13,6) 6.861006E-04 (1,14,5) -4.078556E-03
(1,13,6): (1,12,6) 6.052953E-02 (1,13,5) -6.861006E-04 (1,13,7) -6.860988E-04 (1,14,6) -4.711483E-03
(1,13,7): (1,12,7) 5.348103E-02 (1,13,6) 6.860988E-04 (1,13,8) -3.369456E-03 (1,14,7) -4.078556E-03
(1,13,8): (1,12,8) 1.023240E-02 (1,13,7) 3.369456E-03 (1,13,9) -8.652413E-04 (1,14,8) -9.347480E-04
(1,13,9): (1,12,9) 1.282598E-03 (1,13,8) 8.652413E-04 (1,13,10) -1.315701E-04 (1,14,9) -1.371004E-04
(1,13,10): (1,12,10) 1.395764E-04 (1,13,9) 1.315701E-04 (1,14,10) -1.723763E-05
(1,14,1): (1,13,1) 1.669271E-06 (1,14,2) 1.558442E-06 (1,15,1) -1.895777E-07
(1,14,2): (1,13,2) 1.571367E-05 (1,14,1) -1.558442E-06 (1,14,3) 1.188084E-05 (1,15,2) -1.600822E-06
(1,14,3): (1,13,3) 1.369677E-04 (1,14,2) -1.188084E-05 (1,14,4) 6.761181E-05 (1,15,3) -1.245730E-05
(1,14,4): (1,13,4) 9.347379E-04 (1,14,3) -6.761181E-05 (1,14,5) 2.256724E-04 (1,15,4) -7.488973E-05
(1,14,5): (1,13,5) 4.078556E-03 (1,14,4) -2.256724E-04 (1,14,6) 5.319924E-05 (1,15,5) -2.854094E-04
(1,14,6): (1,13,6) 4.711483E-03 (1,14,5) -5.319924E-05 (1,14,7) -5.319798E-05 (1,15,6) -3.345923E-04
(1,14,7): (1,13,7) 4.078556E-03 (1,14,6) 5.319798E-05 (1,14,8) -2.256699E-04 (1,15,7) -2.854093E-04
(1,14,8): (1,13,8) 9.347480E-04 (1,14,7) 2.256699E-04 (1,14,9) -6.759418E-05 (1,15,8) -7.489081E-05
(1,14,9): (1,13,9) 1.371004E-04 (1,14,8) 6.759418E-05 (1,14,10) -1.170739E-05 (1,15,9) -1.247335E-05
(1,14,10): (1,13,10) 1.723763E-05 (1,14,9) 1.170739E-05 (1,15,10) -1.772145E-06
(1,15,1): (1,14,1) 1.895777E-07 (1,15,2) 1.471981E-07
(1,15,2): (1,14,2) 1.600822E-06 (1,15,1) -1.471981E-07 (1,15,3) 1.024353E-06
(1,15,3): (1,14,3) 1.245730E-05 (1,15,2) -1.024353E-06 (1,15,4) 5.179390E-06
(1,15,4): (1,14,4) 7.488973E-05 (1,15,3) -5.179390E-06 (1,15,5) 1.515292E-05
(1,15,5): (1,14,5) 2.854094E-04 (1,15,4) -1.515292E-05 (1,15,6) 4.016417E-06
(1,15,6): (1,14,6) 3.345923E-04 (1,15,5) -4.016417E-06 (1,15,7) -4.015070E-06
(1,15,7): (1,14,7) 2.854093E-04 (1,15,6) 4.015070E-06 (1,15,8) -1.515160E-05
(1,15,8): (1,14,8) 7.489081E-05 (1,15,7) 1.515160E-05 (1,15,9) -5.176724E-06
(1,15,9): (1,14,9) 1.247335E-05 (1,15,8) 5.176724E-06 (1,15,10) -1.006186E-06
(1,15,10): (1,14,10) 1.772145E-06 (1,15,9) 1.006186E-06

 WEL PACKAGE (WEL-1) FLOW RATES   PERIOD      2   STEP        4
 ----------------------------------------------------------------------------------------
   NUMBER   CELLID                    RATE       NAME                                    
 ----------------------------------------------------------------------------------------
     1      (1,8,6)              -270.00000      WEL                                     
 ----------------------------------------------------------------------------------------




 API PACKAGE (MAR) FLOW RATES   PERIOD      2   STEP        4
 -----------------------------------------------
   NUMBER   CELLID                    RATE      
 -----------------------------------------------
     1      (1,6,5)               46.666667     
     2      (1,6,6)               46.666667     
     3      (1,6,7)               46.666667     
     4      (1,10,5)              43.333333     
     5      (1,10,6)              43.333333     
     6      (1,10,7)              43.333333     
 -----------------------------------------------



1
  HEAD IN LAYER   1 AT END OF TIME STEP   4 IN STRESS PERIOD    2
  ---------------------------------------------------------------------------

            1           2           3           4           5           6           7           8           9          10
 ........................................................................................................................
   1   2.5122E-09  1.8848E-08  1.2988E-07  6.8939E-07  2.3259E-06  2.7612E-06  2.3258E-06  6.8934E-07  1.3001E-07  2.0938E-08
   2   2.2973E-08  1.9164E-07  1.4747E-06  8.7752E-06  3.3148E-05  3.8922E-05  3.3148E-05  8.7753E-06  1.4766E-06  2.1224E-07
   3   2.0317E-07  1.8881E-06  1.6263E-05  1.0971E-04  4.7367E-04  5.4829E-04  4.7367E-04  1.0971E-04  1.6279E-05  2.0732E-06
   4   1.5028E-06  1.5762E-05  1.5468E-04  1.2148E-03  6.2484E-03  7.0920E-03  6.2484E-03  1.2148E-03  1.5479E-04  1.7145E-05
   5   8.3907E-06  1.0106E-04  1.1594E-03  1.1051E-02  7.2971E-02  8.0458E-02  7.2971E-02  1.1051E-02  1.1600E-03  1.0886E-04
   6   2.7404E-05  3.8708E-04  5.3918E-03  6.7154E-02  0.6726      0.7059      0.6726      6.7154E-02  5.3934E-03  4.1276E-04
   7   5.5262E-06  6.2843E-05  6.6165E-04  5.3311E-03  1.9358E-02 -0.2592      1.9358E-02  5.3311E-03  6.6203E-04  6.7960E-05
   8  -6.3193E-06 -1.0615E-04 -1.7287E-03 -2.5506E-02 -0.3304      -3.615     -0.3304     -2.5506E-02 -1.7290E-03 -1.1214E-04
   9   4.9191E-06  5.5491E-05  5.7689E-04  4.5195E-03  1.3967E-02 -0.2653      1.3967E-02  4.5195E-03  5.7723E-04  6.0044E-05
  10   2.5347E-05  3.5805E-04  4.9877E-03  6.2141E-02  0.6248      0.6540      0.6248      6.2141E-02  4.9892E-03  3.8180E-04
  11   7.7682E-06  9.3561E-05  1.0733E-03  1.0229E-02  6.7547E-02  7.4349E-02  6.7547E-02  1.0229E-02  1.0738E-03  1.0078E-04
  12   1.3918E-06  1.4597E-05  1.4323E-04  1.1247E-03  5.7835E-03  6.5561E-03  5.7835E-03  1.1247E-03  1.4334E-04  1.5878E-05
  13   1.8812E-07  1.7484E-06  1.5062E-05  1.0160E-04  4.3853E-04  5.0714E-04  4.3853E-04  1.0160E-04  1.5077E-05  1.9203E-06
  14   2.1196E-08  1.7704E-07  1.3651E-06  8.1263E-06  3.0693E-05  3.6013E-05  3.0694E-05  8.1267E-06  1.3673E-06  1.9652E-07
  15   2.2384E-09  1.6958E-08  1.1939E-07  6.3733E-07  2.1526E-06  2.5543E-06  2.1528E-06  6.3760E-07  1.1993E-07  1.9308E-08

 HEAD WILL BE SAVED ON UNIT 1043 AT END OF TIME STEP    4, STRESS PERIOD    2


  VOLUME BUDGET FOR ENTIRE MODEL AT END OF TIME STEP    4, STRESS PERIOD   2
  ---------------------------------------------------------------------------------------------------

     CUMULATIVE VOLUME      L**3       RATES FOR THIS TIME STEP      L**3/T          PACKAGE NAME    
     ------------------                 ------------------------                     ----------------

           IN:                                      IN:
           ---                                      ---
              STO-SS =           4.1837                STO-SS =       8.7694E-02     STORAGE                          
              STO-SY =        9710.0100                STO-SY =         223.3851     STORAGE                          
                 WEL =           0.0000                   WEL =           0.0000     WEL-1                            
                 API =       10800.0000                   API =         270.0000     MAR                              
                 CHD =       2.8247E-08                   CHD =           0.0000     CHD_0                            

            TOTAL IN =       20514.1938              TOTAL IN =         493.4727

          OUT:                                     OUT:
          ----                                     ----
              STO-SS =           4.9877                STO-SS =           0.1166     STORAGE                          
              STO-SY =        9709.2061                STO-SY =         223.3562     STORAGE                          
                 WEL =       10800.0000                   WEL =         270.0000     WEL-1                            
                 API =           0.0000                   API =           0.0000     MAR                              
                 CHD =       3.0388E-08                   CHD =           0.0000     CHD_0                            

           TOTAL OUT =       20514.1938             TOTAL OUT =         493.4727

            IN - OUT =      -2.4396E-08              IN - OUT =      -7.0082E-10

 PERCENT DISCREPANCY =          -0.00     PERCENT DISCREPANCY =          -0.00




         TIME SUMMARY AT END OF TIME STEP    4 IN STRESS PERIOD    2
                    SECONDS     MINUTES      HOURS       DAYS        YEARS
                    -----------------------------------------------------------
   TIME STEP LENGTH 8.64000E+05  14400.      240.00      10.000     2.73785E-02
 STRESS PERIOD TIME 3.45600E+06  57600.      960.00      40.000     0.10951    
         TOTAL TIME 3.54240E+06  59040.      984.00      41.000     0.11225    


end timestep


start timestep kper="2" kstp="5" mode="normal"

 UBDSV1 SAVING           STO-SS ON UNIT   1042 AT TIME STEP      5, STRESS PERIOD      2
 UBDSV1 SAVING           STO-SY ON UNIT   1042 AT TIME STEP      5, STRESS PERIOD      2
 UBDSV1 SAVING     FLOW-JA-FACE ON UNIT   1042 AT TIME STEP      5, STRESS PERIOD      2
 UBDSV06 SAVING       DATA-SPDIS IN MODEL GWF              PACKAGE NPF             CONNECTED TO MODEL GWF              PACKAGE NPF              ON UNIT   1042 AT TIME STEP      5, STRESS PERIOD      2
 UBDSV06 SAVING              WEL IN MODEL GWF              PACKAGE GWF             CONNECTED TO MODEL GWF              PACKAGE WEL-1            ON UNIT   1042 AT TIME STEP      5, STRESS PERIOD      2
 UBDSV06 SAVING              API IN MODEL GWF              PACKAGE GWF             CONNECTED TO MODEL GWF              PACKAGE MAR              ON UNIT   1042 AT TIME STEP      5, STRESS PERIOD      2
 UBDSV06 SAVING              CHD IN MODEL GWF              PACKAGE GWF             CONNECTED TO MODEL GWF              PACKAGE CHD_0            ON UNIT   1042 AT TIME STEP      5, STRESS PERIOD      2

    CALCULATED INTERCELL FLOW FOR PERIOD 2 STEP 5
(1,1,1): (1,1,2) 4.590113E-07 (1,2,1) 5.782986E-07
(1,1,2): (1,1,1) -4.590113E-07 (1,1,3) 2.910009E-06 (1,2,2) 4.502253E-06
(1,1,3): (1,1,2) -2.910009E-06 (1,1,4) 1.353081E-05 (1,2,3) 3.234378E-05
(1,1,4): (1,1,3) -1.353081E-05 (1,1,5) 3.641997E-05 (1,2,4) 1.788696E-04
(1,1,5): (1,1,4) -3.641997E-05 (1,1,6) 1.030268E-05 (1,2,5) 6.291801E-04
(1,1,6): (1,1,5) -1.030268E-05 (1,1,7) -1.030293E-05 (1,2,6) 7.427173E-04
(1,1,7): (1,1,6) 1.030293E-05 (1,1,8) -3.641963E-05 (1,2,7) 6.291805E-04
(1,1,8): (1,1,7) 3.641963E-05 (1,1,9) -1.352431E-05 (1,2,8) 1.788746E-04
(1,1,9): (1,1,8) 1.352431E-05 (1,1,10) -2.849813E-06 (1,2,9) 3.239709E-05
(1,1,10): (1,1,9) 2.849813E-06 (1,2,10) 5.021619E-06
(1,2,1): (1,1,1) -5.782986E-07 (1,2,2) 4.382966E-06 (1,3,1) 4.710254E-06
(1,2,2): (1,1,2) -4.502253E-06 (1,2,1) -4.382966E-06 (1,2,3) 3.075153E-05 (1,3,2) 4.060175E-05
(1,2,3): (1,1,3) -3.234378E-05 (1,2,2) -3.075153E-05 (1,2,4) 1.600567E-04 (1,3,3) 3.241033E-04
(1,2,4): (1,1,4) -1.788696E-04 (1,2,3) -1.600567E-04 (1,2,5) 4.867298E-04 (1,3,4) 2.015168E-03
(1,2,5): (1,1,5) -6.291801E-04 (1,2,4) -4.867298E-04 (1,2,6) 1.238392E-04 (1,3,5) 8.017425E-03
(1,2,6): (1,1,6) -7.427173E-04 (1,2,5) -1.238392E-04 (1,2,7) -1.238391E-04 (1,3,6) 9.338387E-03
(1,2,7): (1,1,7) -6.291805E-04 (1,2,6) 1.238391E-04 (1,2,8) -4.867249E-04 (1,3,7) 8.017428E-03
(1,2,8): (1,1,8) -1.788746E-04 (1,2,7) 4.867249E-04 (1,2,9) -1.600017E-04 (1,3,8) 2.015203E-03
(1,2,9): (1,1,9) -3.239709E-05 (1,2,8) 1.600017E-04 (1,2,10) -3.022528E-05 (1,3,9) 3.245061E-04
(1,2,10): (1,1,10) -5.021619E-06 (1,2,9) 3.022528E-05 (1,3,10) 4.487134E-05
(1,3,1): (1,2,1) -4.710254E-06 (1,3,2) 4.027446E-05 (1,4,1) 3.114507E-05
(1,3,2): (1,2,2) -4.060175E-05 (1,3,1) -4.027446E-05 (1,3,3) 3.142531E-04 (1,4,2) 3.020763E-04
(1,3,3): (1,2,3) -3.241033E-04 (1,3,2) -3.142531E-04 (1,3,4) 1.851119E-03 (1,4,3) 2.734411E-03
(1,3,4): (1,2,4) -2.015168E-03 (1,3,3) -1.851119E-03 (1,3,5) 6.488895E-03 (1,4,4) 1.966526E-02
(1,3,5): (1,2,5) -8.017425E-03 (1,3,4) -6.488895E-03 (1,3,6) 1.444697E-03 (1,4,5) 9.235312E-02
(1,3,6): (1,2,6) -9.338387E-03 (1,3,5) -1.444697E-03 (1,3,7) -1.444694E-03 (1,4,6) 0.105493
(1,3,7): (1,2,7) -8.017428E-03 (1,3,6) 1.444694E-03 (1,3,8) -6.488858E-03 (1,4,7) 9.235314E-02
(1,3,8): (1,2,8) -2.015203E-03 (1,3,7) 6.488858E-03 (1,3,9) -1.850696E-03 (1,4,8) 1.966545E-02
(1,3,9): (1,2,9) -3.245061E-04 (1,3,8) 1.850696E-03 (1,3,10) -3.098600E-04 (1,4,9) 2.736848E-03
(1,3,10): (1,2,10) -4.487134E-05 (1,3,9) 3.098600E-04 (1,4,10) 3.305772E-04
(1,4,1): (1,3,1) -3.114507E-05 (1,4,2) 3.112057E-04 (1,5,1) 1.497996E-04
(1,4,2): (1,3,2) -3.020763E-04 (1,4,1) -3.112057E-04 (1,4,3) 2.746588E-03 (1,5,2) 1.670510E-03
(1,4,3): (1,3,3) -2.734411E-03 (1,4,2) -2.746588E-03 (1,4,4) 1.878182E-02 (1,5,3) 1.766303E-02
(1,4,4): (1,3,4) -1.966526E-02 (1,4,3) -1.878182E-02 (1,4,5) 7.916719E-02 (1,5,4) 0.153856
(1,4,5): (1,3,5) -9.235312E-02 (1,4,4) -7.916719E-02 (1,4,6) 1.457273E-02 (1,5,5) 0.926831
(1,4,6): (1,3,6) -0.105493 (1,4,5) -1.457273E-02 (1,4,7) -1.457271E-02 (1,5,6) 1.02699
(1,4,7): (1,3,7) -9.235314E-02 (1,4,6) 1.457271E-02 (1,4,8) -7.916698E-02 (1,5,7) 0.926831
(1,4,8): (1,3,8) -1.966545E-02 (1,4,7) 7.916698E-02 (1,4,9) -1.877915E-02 (1,5,8) 0.153857
(1,4,9): (1,3,9) -2.736848E-03 (1,4,8) 1.877915E-02 (1,4,10) -2.716130E-03 (1,5,9) 1.767359E-02
(1,4,10): (1,3,10) -3.305772E-04 (1,4,9) 2.716130E-03 (1,5,10) 1.808952E-03
(1,5,1): (1,4,1) -1.497996E-04 (1,5,2) 1.831919E-03 (1,6,1) 3.669671E-04
(1,5,2): (1,4,2) -1.670510E-03 (1,5,1) -1.831919E-03 (1,5,3) 1.873927E-02 (1,6,2) 4.924638E-03
(1,5,3): (1,4,3) -1.766303E-02 (1,5,2) -1.873927E-02 (1,5,4) 0.154977 (1,6,3) 6.470763E-02
(1,5,4): (1,4,4) -0.153856 (1,5,3) -0.154977 (1,5,5) 0.851573 (1,6,4) 0.756883
(1,5,5): (1,4,5) -0.926831 (1,5,4) -0.851573 (1,5,6) 0.113851 (1,6,5) 7.44212
(1,5,6): (1,4,6) -1.02699 (1,5,5) -0.113851 (1,5,7) -0.113851 (1,6,6) 7.78693
(1,5,7): (1,4,7) -0.926831 (1,5,6) 0.113851 (1,5,8) -0.851572 (1,6,7) 7.44212
(1,5,8): (1,4,8) -0.153857 (1,5,7) 0.851572 (1,5,9) -0.154964 (1,6,8) 0.756885
(1,5,9): (1,4,9) -1.767359E-02 (1,5,8) 0.154964 (1,5,10) -1.858091E-02 (1,6,9) 6.473019E-02
(1,5,10): (1,4,10) -1.808952E-03 (1,5,9) 1.858091E-02 (1,6,10) 5.267611E-03
(1,6,1): (1,5,1) -3.669671E-04 (1,6,2) 6.389656E-03 (1,7,1) -4.352345E-04
(1,6,2): (1,5,2) -4.924638E-03 (1,6,1) -6.389656E-03 (1,6,3) 7.853052E-02 (1,7,2) -5.751600E-03
(1,6,3): (1,5,3) -6.470763E-02 (1,6,2) -7.853052E-02 (1,6,4) 0.847769 (1,7,3) -7.445753E-02
(1,6,4): (1,5,4) -0.756883 (1,6,3) -0.847769 (1,6,5) 7.54253 (1,7,4) -0.857983
(1,6,5): (1,5,5) -7.44212 (1,6,4) -7.54253 (1,6,6) 0.438812 (1,7,5) -8.33674
(1,6,6): (1,5,6) -7.78693 (1,6,5) -0.438812 (1,6,7) -0.438811 (1,7,6) -12.7622
(1,6,7): (1,5,7) -7.44212 (1,6,6) 0.438811 (1,6,8) -7.54253 (1,7,7) -8.33674
(1,6,8): (1,5,8) -0.756885 (1,6,7) 7.54253 (1,6,9) -0.847736 (1,7,8) -0.857985
(1,6,9): (1,5,9) -6.473019E-02 (1,6,8) 0.847736 (1,6,10) -7.805139E-02 (1,7,9) -7.448464E-02
(1,6,10): (1,5,10) -5.267611E-03 (1,6,9) 7.805139E-02 (1,7,10) -6.157975E-03
(1,7,1): (1,6,1) 4.352345E-04 (1,7,2) 1.073257E-03 (1,8,1) -2.522445E-04
(1,7,2): (1,6,2) 5.751600E-03 (1,7,1) -1.073257E-03 (1,7,3) 9.821796E-03 (1,8,2) -3.237394E-03
(1,7,3): (1,6,3) 7.445753E-02 (1,7,2) -9.821796E-03 (1,7,4) 6.432219E-02 (1,8,3) -4.100471E-02
(1,7,4): (1,6,4) 0.857983 (1,7,3) -6.432219E-02 (1,7,5) 0.114370 (1,8,4) -0.468318
(1,7,5): (1,6,5) 8.33674 (1,7,4) -0.114370 (1,7,6) -3.65845 (1,8,5) -4.64687
(1,7,6): (1,6,6) 12.7622 (1,7,5) 3.65845 (1,7,7) 3.65845 (1,8,6) -37.4831
(1,7,7): (1,6,7) 8.33674 (1,7,6) -3.65845 (1,7,8) -0.114369 (1,8,7) -4.64687
(1,7,8): (1,6,8) 0.857985 (1,7,7) 0.114369 (1,7,9) -6.431395E-02 (1,8,8) -0.468319
(1,7,9): (1,6,9) 7.448464E-02 (1,7,8) 6.431395E-02 (1,7,10) -9.722300E-03 (1,8,9) -4.102084E-02
(1,7,10): (1,6,10) 6.157975E-03 (1,7,9) 9.722300E-03 (1,8,10) -3.472400E-03
(1,8,1): (1,7,1) 2.522445E-04 (1,8,2) -1.911864E-03 (1,9,1) 2.387508E-04
(1,8,2): (1,7,2) 3.237394E-03 (1,8,1) 1.911864E-03 (1,8,3) -2.794156E-02 (1,9,2) 3.090304E-03
(1,8,3): (1,7,3) 4.100471E-02 (1,8,2) 2.794156E-02 (1,8,4) -0.362583 (1,9,3) 3.948308E-02
(1,8,4): (1,7,4) 0.468318 (1,8,3) 0.362583 (1,8,5) -4.04003 (1,9,4) 0.455327
(1,8,5): (1,7,5) 4.64687 (1,8,4) 4.04003 (1,8,6) -36.1574 (1,9,5) 4.56771
(1,8,6): (1,7,6) 37.4831 (1,8,5) 36.1574 (1,8,7) 36.1574 (1,9,6) 37.3662
(1,8,7): (1,7,7) 4.64687 (1,8,6) -36.1574 (1,8,8) 4.04003 (1,9,7) 4.56771
(1,8,8): (1,7,8) 0.468319 (1,8,7) -4.04003 (1,8,9) 0.362576 (1,9,8) 0.455328
(1,8,9): (1,7,9) 4.102084E-02 (1,8,8) -0.362576 (1,8,10) 2.782213E-02 (1,9,9) 3.949824E-02
(1,8,10): (1,7,10) 3.472400E-03 (1,8,9) -2.782213E-02 (1,9,10) 3.312861E-03
(1,9,1): (1,8,1) -2.387508E-04 (1,9,2) 9.396643E-04 (1,10,1) 4.067998E-04
(1,9,2): (1,8,2) -3.090304E-03 (1,9,1) -9.396643E-04 (1,9,3) 8.447739E-03 (1,10,2) 5.372989E-03
(1,9,3): (1,8,3) -3.948308E-02 (1,9,2) -8.447739E-03 (1,9,4) 5.290561E-02 (1,10,3) 6.950663E-02
(1,9,4): (1,8,4) -0.455327 (1,9,3) -5.290561E-02 (1,9,5) 5.156533E-02 (1,10,4) 0.800215
(1,9,5): (1,8,5) -4.56771 (1,9,4) -5.156533E-02 (1,9,6) -3.66649 (1,10,5) 7.76959
(1,9,6): (1,8,6) -37.3662 (1,9,5) 3.66649 (1,9,7) 3.66649 (1,10,6) 12.1188
(1,9,7): (1,8,7) -4.56771 (1,9,6) -3.66649 (1,9,8) -5.156477E-02 (1,10,7) 7.76959
(1,9,8): (1,8,8) -0.455328 (1,9,7) 5.156477E-02 (1,9,9) -5.289827E-02 (1,10,8) 0.800217
(1,9,9): (1,8,9) -3.949824E-02 (1,9,8) 5.289827E-02 (1,9,10) -8.359725E-03 (1,10,9) 6.953198E-02
(1,9,10): (1,8,10) -3.312861E-03 (1,9,9) 8.359725E-03 (1,10,10) 5.752805E-03
(1,10,1): (1,9,1) -4.067998E-04 (1,10,2) 5.905880E-03 (1,11,1) -3.389436E-04
(1,10,2): (1,9,2) -5.372989E-03 (1,10,1) -5.905880E-03 (1,10,3) 7.258335E-02 (1,11,2) -4.549693E-03
(1,10,3): (1,9,3) -6.950663E-02 (1,10,2) -7.258335E-02 (1,10,4) 0.783494 (1,11,3) -5.978902E-02
(1,10,4): (1,9,4) -0.800215 (1,10,3) -0.783494 (1,10,5) 6.97313 (1,11,4) -0.699412
(1,10,5): (1,9,5) -7.76959 (1,10,4) -6.97313 (1,10,6) 0.379321 (1,11,5) -6.88027
(1,10,6): (1,9,6) -12.1188 (1,10,5) -0.379321 (1,10,7) -0.379320 (1,11,6) -7.17231
(1,10,7): (1,9,7) -7.76959 (1,10,6) 0.379320 (1,10,8) -6.97312 (1,11,7) -6.88027
(1,10,8): (1,9,8) -0.800217 (1,10,7) 6.97312 (1,10,9) -0.783463 (1,11,8) -0.699413
(1,10,9): (1,9,9) -6.953198E-02 (1,10,8) 0.783463 (1,10,10) -7.214056E-02 (1,11,9) -5.980984E-02
(1,10,10): (1,9,10) -5.752805E-03 (1,10,9) 7.214056E-02 (1,11,10) -4.866480E-03
(1,11,1): (1,10,1) 3.389436E-04 (1,11,2) 1.695073E-03 (1,12,1) -1.386050E-04
(1,11,2): (1,10,2) 4.549693E-03 (1,11,1) -1.695073E-03 (1,11,3) 1.733697E-02 (1,12,2) -1.545596E-03
(1,11,3): (1,10,3) 5.978902E-02 (1,11,2) -1.733697E-02 (1,11,4) 0.143343 (1,12,3) -1.634027E-02
(1,11,4): (1,10,4) 0.699412 (1,11,3) -0.143343 (1,11,5) 0.787327 (1,12,4) -0.142302
(1,11,5): (1,10,5) 6.88027 (1,11,4) -0.787327 (1,11,6) 0.103054 (1,12,5) -0.856892
(1,11,6): (1,10,6) 7.17231 (1,11,5) -0.103054 (1,11,7) -0.103054 (1,12,6) -0.947364
(1,11,7): (1,10,7) 6.88027 (1,11,6) 0.103054 (1,11,8) -0.787326 (1,12,7) -0.856892
(1,11,8): (1,10,8) 0.699413 (1,11,7) 0.787326 (1,11,9) -0.143331 (1,12,8) -0.142303
(1,11,9): (1,10,9) 5.980984E-02 (1,11,8) 0.143331 (1,11,10) -1.719043E-02 (1,12,9) -1.635005E-02
(1,11,10): (1,10,10) 4.866480E-03 (1,11,9) 1.719043E-02 (1,12,10) -1.673690E-03
(1,12,1): (1,11,1) 1.386050E-04 (1,12,2) 2.880804E-04 (1,13,1) -2.883273E-05
(1,12,2): (1,11,2) 1.545596E-03 (1,12,1) -2.880804E-04 (1,12,3) 2.542150E-03 (1,13,2) -2.796251E-04
(1,12,3): (1,11,3) 1.634027E-02 (1,12,2) -2.542150E-03 (1,12,4) 1.737968E-02 (1,13,3) -2.530839E-03
(1,12,4): (1,11,4) 0.142302 (1,12,3) -1.737968E-02 (1,12,5) 7.322408E-02 (1,13,4) -1.819721E-02
(1,12,5): (1,11,5) 0.856892 (1,12,4) -7.322408E-02 (1,12,6) 1.332320E-02 (1,13,5) -8.542563E-02
(1,12,6): (1,11,6) 0.947364 (1,12,5) -1.332320E-02 (1,12,7) -1.332318E-02 (1,13,6) -9.743216E-02
(1,12,7): (1,11,7) 0.856892 (1,12,6) 1.332318E-02 (1,12,8) -7.322388E-02 (1,13,7) -8.542564E-02
(1,12,8): (1,11,8) 0.142303 (1,12,7) 7.322388E-02 (1,12,9) -1.737721E-02 (1,13,8) -1.819739E-02
(1,12,9): (1,11,9) 1.635005E-02 (1,12,8) 1.737721E-02 (1,12,10) -2.513953E-03 (1,13,9) -2.533094E-03
(1,12,10): (1,11,10) 1.673690E-03 (1,12,9) 2.513953E-03 (1,13,10) -3.060091E-04
(1,13,1): (1,12,1) 2.883273E-05 (1,13,2) 3.728799E-05 (1,14,1) -4.361801E-06
(1,13,2): (1,12,2) 2.796251E-04 (1,13,1) -3.728799E-05 (1,13,3) 2.909365E-04 (1,14,2) -3.759461E-05
(1,13,3): (1,12,3) 2.530839E-03 (1,13,2) -2.909365E-04 (1,13,4) 1.713435E-03 (1,14,3) -3.000598E-04
(1,13,4): (1,12,4) 1.819721E-02 (1,13,3) -1.713435E-03 (1,13,5) 6.003854E-03 (1,14,4) -1.865317E-03
(1,13,5): (1,12,5) 8.542563E-02 (1,13,4) -6.003854E-03 (1,13,6) 1.326737E-03 (1,14,5) -7.418788E-03
(1,13,6): (1,12,6) 9.743216E-02 (1,13,5) -1.326737E-03 (1,13,7) -1.326733E-03 (1,14,6) -8.631607E-03
(1,13,7): (1,12,7) 8.542564E-02 (1,13,6) 1.326733E-03 (1,13,8) -6.003819E-03 (1,14,7) -7.418790E-03
(1,13,8): (1,12,8) 1.819739E-02 (1,13,7) 6.003819E-03 (1,13,9) -1.713042E-03 (1,14,8) -1.865348E-03
(1,13,9): (1,12,9) 2.533094E-03 (1,13,8) 1.713042E-03 (1,13,10) -2.868684E-04 (1,14,9) -3.004322E-04
(1,13,10): (1,12,10) 3.060091E-04 (1,13,9) 2.868684E-04 (1,14,10) -4.154788E-05
(1,14,1): (1,13,1) 4.361801E-06 (1,14,2) 4.055183E-06 (1,15,1) -5.356313E-07
(1,14,2): (1,13,2) 3.759461E-05 (1,14,1) -4.055183E-06 (1,14,3) 2.847140E-05 (1,15,2) -4.169631E-06
(1,14,3): (1,13,3) 3.000598E-04 (1,14,2) -2.847140E-05 (1,14,4) 1.481804E-04 (1,15,3) -2.995021E-05
(1,14,4): (1,13,4) 1.865317E-03 (1,14,3) -1.481804E-04 (1,14,5) 4.504613E-04 (1,15,4) -1.656047E-04
(1,14,5): (1,13,5) 7.418788E-03 (1,14,4) -4.504613E-04 (1,14,6) 1.140071E-04 (1,15,5) -5.823551E-04
(1,14,6): (1,13,6) 8.631607E-03 (1,14,5) -1.140071E-04 (1,14,7) -1.140055E-04 (1,15,6) -6.868631E-04
(1,14,7): (1,13,7) 7.418790E-03 (1,14,6) 1.140055E-04 (1,14,8) -4.504554E-04 (1,15,7) -5.823553E-04
(1,14,8): (1,13,8) 1.865348E-03 (1,14,7) 4.504554E-04 (1,14,9) -1.481285E-04 (1,15,8) -1.656089E-04
(1,14,9): (1,13,9) 3.004322E-04 (1,14,8) 1.481285E-04 (1,14,10) -2.798404E-05 (1,15,9) -2.999930E-05
(1,14,10): (1,13,10) 4.154788E-05 (1,14,9) 2.798404E-05 (1,15,10) -4.650489E-06
(1,15,1): (1,14,1) 5.356313E-07 (1,15,2) 4.211835E-07
(1,15,2): (1,14,2) 4.169631E-06 (1,15,1) -4.211835E-07 (1,15,3) 2.690822E-06
(1,15,3): (1,14,3) 2.995021E-05 (1,15,2) -2.690822E-06 (1,15,4) 1.252595E-05
(1,15,4): (1,14,4) 1.656047E-04 (1,15,3) -1.252595E-05 (1,15,5) 3.371131E-05
(1,15,5): (1,14,5) 5.823551E-04 (1,15,4) -3.371131E-05 (1,15,6) 9.499743E-06
(1,15,6): (1,14,6) 6.868631E-04 (1,15,5) -9.499743E-06 (1,15,7) -9.498367E-06
(1,15,7): (1,14,7) 5.823553E-04 (1,15,6) 9.498367E-06 (1,15,8) -3.370955E-05
(1,15,8): (1,14,8) 1.656089E-04 (1,15,7) 3.370955E-05 (1,15,9) -1.251888E-05
(1,15,9): (1,14,9) 2.999930E-05 (1,15,8) 1.251888E-05 (1,15,10) -2.635232E-06
(1,15,10): (1,14,10) 4.650489E-06 (1,15,9) 2.635232E-06

 WEL PACKAGE (WEL-1) FLOW RATES   PERIOD      2   STEP        5
 ----------------------------------------------------------------------------------------
   NUMBER   CELLID                    RATE       NAME                                    
 ----------------------------------------------------------------------------------------
     1      (1,8,6)              -270.00000      WEL                                     
 ----------------------------------------------------------------------------------------




 API PACKAGE (MAR) FLOW RATES   PERIOD      2   STEP        5
 -----------------------------------------------
   NUMBER   CELLID                    RATE      
 -----------------------------------------------
     1      (1,6,5)               46.666667     
     2      (1,6,6)               46.666667     
     3      (1,6,7)               46.666667     
     4      (1,10,5)              43.333333     
     5      (1,10,6)              43.333333     
     6      (1,10,7)              43.333333     
 -----------------------------------------------



1
  HEAD IN LAYER   1 AT END OF TIME STEP   5 IN STRESS PERIOD    2
  ---------------------------------------------------------------------------

            1           2           3           4           5           6           7           8           9          10
 ........................................................................................................................
   1   7.6962E-09  5.3597E-08  3.4460E-07  1.6977E-06  5.3397E-06  6.3699E-06  5.3396E-06  1.6977E-06  3.4526E-07  6.0276E-08
   2   6.5526E-08  5.0382E-07  3.5790E-06  1.9585E-05  6.8257E-05  8.0641E-05  6.8257E-05  1.9585E-05  3.5850E-06  5.6244E-07
   3   5.3655E-07  4.5640E-06  3.5989E-05  2.2110E-04  8.6993E-04  1.0144E-03  8.6993E-04  2.2110E-04  3.6035E-05  5.0496E-06
   4   3.6511E-06  3.4772E-05  3.0942E-04  2.1872E-03  1.0096E-02  1.1552E-02  1.0096E-02  2.1872E-03  3.0971E-04  3.8107E-05
   5   1.8631E-05  2.0182E-04  2.0754E-03  1.7546E-02  0.1018      0.1131      0.1018      1.7546E-02  2.0767E-03  2.1900E-04
   6   5.5328E-05  6.9425E-04  8.5406E-03  9.2540E-02  0.7915      0.8320      0.7915      9.2540E-02  8.5442E-03  7.4572E-04
   7   1.1804E-05  1.1913E-04  1.1012E-03  7.5286E-03  1.8944E-02 -0.3462      1.8944E-02  7.5286E-03  1.1021E-03  1.2997E-04
   8  -1.3420E-05 -2.0461E-04 -2.9988E-03 -3.9268E-02 -0.4449      -4.229     -0.4449     -3.9268E-02 -2.9995E-03 -2.1727E-04
   9   1.0455E-05  1.0442E-04  9.4911E-04  6.2364E-03  1.1387E-02 -0.3548      1.1387E-02  6.2364E-03  9.4991E-04  1.1402E-04
  10   5.1135E-05  6.4168E-04  7.8943E-03  8.5579E-02  0.7351      0.7704      0.7351      8.5579E-02  7.8976E-03  6.8926E-04
  11   1.7241E-05  1.8674E-04  1.9201E-03  1.6231E-02  9.4229E-02  0.1044      9.4229E-02  1.6231E-02  1.9214E-03  2.0264E-04
  12   3.3800E-06  3.2188E-05  2.8640E-04  2.0240E-03  9.3396E-03  1.0670E-02  9.3396E-03  2.0240E-03  2.8666E-04  3.5276E-05
  13   4.9676E-07  4.2256E-06  3.3319E-05  2.0466E-04  8.0500E-04  9.3766E-04  8.0500E-04  2.0466E-04  3.3362E-05  4.6756E-06
  14   6.0583E-08  4.6610E-07  3.3132E-06  1.8131E-05  6.3177E-05  7.4578E-05  6.3177E-05  1.8132E-05  3.3192E-06  5.2077E-07
  15   7.0200E-09  4.9138E-08  3.1822E-07  1.5708E-06  4.9419E-06  5.8919E-06  4.9421E-06  1.5711E-06  3.1924E-07  5.5718E-08

 HEAD WILL BE SAVED ON UNIT 1043 AT END OF TIME STEP    5, STRESS PERIOD    2


  VOLUME BUDGET FOR ENTIRE MODEL AT END OF TIME STEP    5, STRESS PERIOD   2
  ---------------------------------------------------------------------------------------------------

     CUMULATIVE VOLUME      L**3       RATES FOR THIS TIME STEP      L**3/T          PACKAGE NAME    
     ------------------                 ------------------------                     ----------------

           IN:                                      IN:
           ---                                      ---
              STO-SS =           4.9843                STO-SS =       8.0051E-02     STORAGE                          
              STO-SY =       11821.3724                STO-SY =         211.1362     STORAGE                          
                 WEL =           0.0000                   WEL =           0.0000     WEL-1                            
                 API =       13500.0000                   API =         270.0000     MAR                              
                 CHD =       2.8247E-08                   CHD =           0.0000     CHD_0                            

            TOTAL IN =       25326.3566              TOTAL IN =         481.2163

          OUT:                                     OUT:
          ----                                     ----
              STO-SS =           6.0960                STO-SS =           0.1108     STORAGE                          
              STO-SY =       11820.2607                STO-SY =         211.1055     STORAGE                          
                 WEL =       13500.0000                   WEL =         270.0000     WEL-1                            
                 API =           0.0000                   API =           0.0000     MAR                              
                 CHD =       3.0388E-08                   CHD =           0.0000     CHD_0                            

           TOTAL OUT =       25326.3566             TOTAL OUT =         481.2163

            IN - OUT =      -3.0657E-08              IN - OUT =      -6.2630E-10

 PERCENT DISCREPANCY =          -0.00     PERCENT DISCREPANCY =          -0.00




         TIME SUMMARY AT END OF TIME STEP    5 IN STRESS PERIOD    2
                    SECONDS     MINUTES      HOURS       DAYS        YEARS
                    -----------------------------------------------------------
   TIME STEP LENGTH 8.64000E+05  14400.      240.00      10.000     2.73785E-02
 STRESS PERIOD TIME 4.32000E+06  72000.      1200.0      50.000     0.13689    
         TOTAL TIME 4.40640E+06  73440.      1224.0      51.000     0.13963    


end timestep


start timestep kper="2" kstp="6" mode="normal"

 UBDSV1 SAVING           STO-SS ON UNIT   1042 AT TIME STEP      6, STRESS PERIOD      2
 UBDSV1 SAVING           STO-SY ON UNIT   1042 AT TIME STEP      6, STRESS PERIOD      2
 UBDSV1 SAVING     FLOW-JA-FACE ON UNIT   1042 AT TIME STEP      6, STRESS PERIOD      2
 UBDSV06 SAVING       DATA-SPDIS IN MODEL GWF              PACKAGE NPF             CONNECTED TO MODEL GWF              PACKAGE NPF              ON UNIT   1042 AT TIME STEP      6, STRESS PERIOD      2
 UBDSV06 SAVING              WEL IN MODEL GWF              PACKAGE GWF             CONNECTED TO MODEL GWF              PACKAGE WEL-1            ON UNIT   1042 AT TIME STEP      6, STRESS PERIOD      2
 UBDSV06 SAVING              API IN MODEL GWF              PACKAGE GWF             CONNECTED TO MODEL GWF              PACKAGE MAR              ON UNIT   1042 AT TIME STEP      6, STRESS PERIOD      2
 UBDSV06 SAVING              CHD IN MODEL GWF              PACKAGE GWF             CONNECTED TO MODEL GWF              PACKAGE CHD_0            ON UNIT   1042 AT TIME STEP      6, STRESS PERIOD      2

    CALCULATED INTERCELL FLOW FOR PERIOD 2 STEP 6
(1,1,1): (1,1,2) 1.116542E-06 (1,2,1) 1.409456E-06
(1,1,2): (1,1,1) -1.116542E-06 (1,1,3) 6.621472E-06 (1,2,2) 1.017827E-05
(1,1,3): (1,1,2) -6.621472E-06 (1,1,4) 2.860224E-05 (1,2,3) 6.796888E-05
(1,1,4): (1,1,3) -2.860224E-05 (1,1,5) 7.146783E-05 (1,2,4) 3.486634E-04
(1,1,5): (1,1,4) -7.146783E-05 (1,1,6) 2.131520E-05 (1,2,5) 1.142989E-03
(1,1,6): (1,1,5) -2.131520E-05 (1,1,7) -2.131530E-05 (1,2,6) 1.355827E-03
(1,1,7): (1,1,6) 2.131530E-05 (1,1,8) -7.146611E-05 (1,2,7) 1.142990E-03
(1,1,8): (1,1,7) 7.146611E-05 (1,1,9) -2.858347E-05 (1,2,8) 3.486770E-04
(1,1,9): (1,1,8) 2.858347E-05 (1,1,10) -6.464345E-06 (1,2,9) 6.810674E-05
(1,1,10): (1,1,9) 6.464345E-06 (1,2,10) 1.143467E-05
(1,2,1): (1,1,1) -1.409456E-06 (1,2,2) 9.885359E-06 (1,3,1) 1.068158E-05
(1,2,2): (1,1,2) -1.017827E-05 (1,2,1) -9.885359E-06 (1,2,3) 6.441208E-05 (1,3,2) 8.491200E-05
(1,2,3): (1,1,3) -6.796888E-05 (1,2,2) -6.441208E-05 (1,2,4) 3.092967E-04 (1,3,3) 6.258921E-04
(1,2,4): (1,1,4) -3.486634E-04 (1,2,3) -3.092967E-04 (1,2,5) 8.657910E-04 (1,3,4) 3.581255E-03
(1,2,5): (1,1,5) -1.142989E-03 (1,2,4) -8.657910E-04 (1,2,6) 2.341510E-04 (1,3,5) 1.314859E-02
(1,2,6): (1,1,6) -1.355827E-03 (1,2,5) -2.341510E-04 (1,2,7) -2.341499E-04 (1,3,6) 1.540538E-02
(1,2,7): (1,1,7) -1.142990E-03 (1,2,6) 2.341499E-04 (1,2,8) -8.657769E-04 (1,3,7) 1.314860E-02
(1,2,8): (1,1,8) -3.486770E-04 (1,2,7) 8.657769E-04 (1,2,9) -3.091537E-04 (1,3,8) 3.581345E-03
(1,2,9): (1,1,9) -6.810674E-05 (1,2,8) 3.091537E-04 (1,2,10) -6.313641E-05 (1,3,9) 6.268653E-04
(1,2,10): (1,1,10) -1.143467E-05 (1,2,9) 6.313641E-05 (1,3,10) 9.452245E-05
(1,3,1): (1,2,1) -1.068158E-05 (1,3,2) 8.411578E-05 (1,4,1) 6.520961E-05
(1,3,2): (1,2,2) -8.491200E-05 (1,3,1) -8.411578E-05 (1,3,3) 6.053921E-04 (1,4,2) 5.795439E-04
(1,3,3): (1,2,3) -6.258921E-04 (1,3,2) -6.053921E-04 (1,3,4) 3.264650E-03 (1,4,3) 4.808177E-03
(1,3,4): (1,2,4) -3.581255E-03 (1,3,3) -3.264650E-03 (1,3,5) 1.043286E-02 (1,4,4) 3.153761E-02
(1,3,5): (1,2,5) -1.314859E-02 (1,3,4) -1.043286E-02 (1,3,6) 2.490651E-03 (1,4,5) 0.135116
(1,3,6): (1,2,6) -1.540538E-02 (1,3,5) -2.490651E-03 (1,3,7) -2.490643E-03 (1,4,6) 0.155335
(1,3,7): (1,2,7) -1.314860E-02 (1,3,6) 2.490643E-03 (1,3,8) -1.043277E-02 (1,4,7) 0.135116
(1,3,8): (1,2,8) -3.581345E-03 (1,3,7) 1.043277E-02 (1,3,9) -3.263624E-03 (1,4,8) 3.153808E-02
(1,3,9): (1,2,9) -6.268653E-04 (1,3,8) 3.263624E-03 (1,3,10) -5.954791E-04 (1,4,9) 4.813645E-03
(1,3,10): (1,2,10) -9.452245E-05 (1,3,9) 5.954791E-04 (1,4,10) 6.387856E-04
(1,4,1): (1,3,1) -6.520961E-05 (1,4,2) 5.984502E-04 (1,5,1) 2.870346E-04
(1,4,2): (1,3,2) -5.795439E-04 (1,4,1) -5.984502E-04 (1,4,3) 4.834026E-03 (1,5,2) 2.911951E-03
(1,4,3): (1,3,3) -4.808177E-03 (1,4,2) -4.834026E-03 (1,4,4) 2.999368E-02 (1,5,3) 2.798257E-02
(1,4,4): (1,3,4) -3.153761E-02 (1,4,3) -2.999368E-02 (1,4,5) 0.113989 (1,5,4) 0.220095
(1,4,5): (1,3,5) -0.135116 (1,4,4) -0.113989 (1,4,6) 2.268392E-02 (1,5,5) 1.19396
(1,4,6): (1,3,6) -0.155335 (1,4,5) -2.268392E-02 (1,4,7) -2.268387E-02 (1,5,6) 1.33010
(1,4,7): (1,3,7) -0.135116 (1,4,6) 2.268387E-02 (1,4,8) -0.113988 (1,5,7) 1.19396
(1,4,8): (1,3,8) -3.153808E-02 (1,4,7) 0.113988 (1,4,9) -2.998764E-02 (1,5,8) 0.220097
(1,4,9): (1,3,9) -4.813645E-03 (1,4,8) 2.998764E-02 (1,4,10) -4.770337E-03 (1,5,9) 2.800440E-02
(1,4,10): (1,3,10) -6.387856E-04 (1,4,9) 4.770337E-03 (1,5,10) 3.175377E-03
(1,5,1): (1,4,1) -2.870346E-04 (1,5,2) 3.223375E-03 (1,6,1) 6.299936E-04
(1,5,2): (1,4,2) -2.911951E-03 (1,5,1) -3.223375E-03 (1,5,3) 2.990512E-02 (1,6,2) 7.638030E-03
(1,5,3): (1,4,3) -2.798257E-02 (1,5,2) -2.990512E-02 (1,5,4) 0.222110 (1,6,3) 9.049182E-02
(1,5,4): (1,4,4) -0.220095 (1,5,3) -0.222110 (1,5,5) 1.08684 (1,6,4) 0.947552
(1,5,5): (1,4,5) -1.19396 (1,5,4) -1.08684 (1,5,6) 0.157300 (1,6,5) 8.31017
(1,5,6): (1,4,6) -1.33010 (1,5,5) -0.157300 (1,5,7) -0.157299 (1,6,6) 8.68028
(1,5,7): (1,4,7) -1.19396 (1,5,6) 0.157299 (1,5,8) -1.08683 (1,6,7) 8.31017
(1,5,8): (1,4,8) -0.220097 (1,5,7) 1.08683 (1,5,9) -0.222084 (1,6,8) 0.947555
(1,5,9): (1,4,9) -2.800440E-02 (1,5,8) 0.222084 (1,5,10) -2.959976E-02 (1,6,9) 9.053391E-02
(1,5,10): (1,4,10) -3.175377E-03 (1,5,9) 2.959976E-02 (1,6,10) 8.223050E-03
(1,6,1): (1,5,1) -6.299936E-04 (1,6,2) 1.023159E-02 (1,7,1) -7.721852E-04
(1,6,2): (1,5,2) -7.638030E-03 (1,6,1) -1.023159E-02 (1,6,3) 0.112777 (1,7,2) -9.215148E-03
(1,6,3): (1,5,3) -9.049182E-02 (1,6,2) -0.112777 (1,6,4) 1.08028 (1,7,3) -0.107489
(1,6,4): (1,5,4) -0.947552 (1,6,3) -1.08028 (1,6,5) 8.45857 (1,7,4) -1.10762
(1,6,5): (1,5,5) -8.31017 (1,6,4) -8.45857 (1,6,6) 0.504538 (1,7,5) -9.59009
(1,6,6): (1,5,6) -8.68028 (1,6,5) -0.504538 (1,6,7) -0.504538 (1,7,6) -15.0440
(1,6,7): (1,5,7) -8.31017 (1,6,6) 0.504538 (1,6,8) -8.45856 (1,7,7) -9.59009
(1,6,8): (1,5,8) -0.947555 (1,6,7) 8.45856 (1,6,9) -1.08021 (1,7,8) -1.10762
(1,6,9): (1,5,9) -9.053391E-02 (1,6,8) 1.08021 (1,6,10) -0.111928 (1,7,9) -0.107541
(1,6,10): (1,5,10) -8.223050E-03 (1,6,9) 0.111928 (1,7,10) -9.931429E-03
(1,7,1): (1,6,1) 7.721852E-04 (1,7,2) 1.788545E-03 (1,8,1) -4.736005E-04
(1,7,2): (1,6,2) 9.215148E-03 (1,7,1) -1.788545E-03 (1,7,3) 1.449819E-02 (1,8,2) -5.525197E-03
(1,7,3): (1,6,3) 0.107489 (1,7,2) -1.449819E-02 (1,7,4) 8.041955E-02 (1,8,3) -6.346232E-02
(1,7,4): (1,6,4) 1.10762 (1,7,3) -8.041955E-02 (1,7,5) 5.613768E-02 (1,8,4) -0.651866
(1,7,5): (1,6,5) 9.59009 (1,7,4) -5.613768E-02 (1,7,6) -4.49323 (1,8,5) -5.77186
(1,7,6): (1,6,6) 15.0440 (1,7,5) 4.49323 (1,7,7) 4.49323 (1,8,6) -41.4666
(1,7,7): (1,6,7) 9.59009 (1,7,6) -4.49323 (1,7,8) -5.613628E-02 (1,8,7) -5.77186
(1,7,8): (1,6,8) 1.10762 (1,7,7) 5.613628E-02 (1,7,9) -8.040279E-02 (1,8,8) -0.651868
(1,7,9): (1,6,9) 0.107541 (1,7,8) 8.040279E-02 (1,7,10) -1.431397E-02 (1,8,9) -6.349503E-02
(1,7,10): (1,6,10) 9.931429E-03 (1,7,9) 1.431397E-02 (1,8,10) -5.963654E-03
(1,8,1): (1,7,1) 4.736005E-04 (1,8,2) -3.262970E-03 (1,9,1) 4.471775E-04
(1,8,2): (1,7,2) 5.525197E-03 (1,8,1) 3.262970E-03 (1,8,3) -4.342944E-02 (1,9,2) 5.263322E-03
(1,8,3): (1,7,3) 6.346232E-02 (1,8,2) 4.342944E-02 (1,8,4) -0.507204 (1,9,3) 6.100204E-02
(1,8,4): (1,7,4) 0.651866 (1,8,3) 0.507204 (1,8,5) -5.02774 (1,9,4) 0.632907
(1,8,5): (1,7,5) 5.77186 (1,8,4) 5.02774 (1,8,6) -39.7081 (1,9,5) 5.66724
(1,8,6): (1,7,6) 41.4666 (1,8,5) 39.7081 (1,8,7) 39.7081 (1,9,6) 41.3079
(1,8,7): (1,7,7) 5.77186 (1,8,6) -39.7081 (1,8,8) 5.02773 (1,9,7) 5.66724
(1,8,8): (1,7,8) 0.651868 (1,8,7) -5.02773 (1,8,9) 0.507190 (1,9,8) 0.632909
(1,8,9): (1,7,9) 6.349503E-02 (1,8,8) -0.507190 (1,8,10) 4.320780E-02 (1,9,9) 6.103270E-02
(1,8,10): (1,7,10) 5.963654E-03 (1,8,9) -4.320780E-02 (1,9,10) 5.677574E-03
(1,9,1): (1,8,1) -4.471775E-04 (1,9,2) 1.553103E-03 (1,10,1) 7.224923E-04
(1,9,2): (1,8,2) -5.263322E-03 (1,9,1) -1.553103E-03 (1,9,3) 1.230101E-02 (1,10,2) 8.618409E-03
(1,9,3): (1,8,3) -6.100204E-02 (1,9,2) -1.230101E-02 (1,9,4) 6.402787E-02 (1,10,3) 0.100464
(1,9,4): (1,8,4) -0.632907 (1,9,3) -6.402787E-02 (1,9,5) -2.401406E-02 (1,10,4) 1.03435
(1,9,5): (1,8,5) -5.66724 (1,9,4) 2.401406E-02 (1,9,6) -4.50415 (1,10,5) 8.94998
(1,9,6): (1,8,6) -41.3079 (1,9,5) 4.50415 (1,9,7) 4.50415 (1,10,6) 14.3064
(1,9,7): (1,8,7) -5.66724 (1,9,6) -4.50415 (1,9,8) 2.401531E-02 (1,10,7) 8.94998
(1,9,8): (1,8,8) -0.632909 (1,9,7) -2.401531E-02 (1,9,9) -6.401300E-02 (1,10,8) 1.03436
(1,9,9): (1,8,9) -6.103270E-02 (1,9,8) 6.401300E-02 (1,9,10) -1.213894E-02 (1,10,9) 0.100513
(1,9,10): (1,8,10) -5.677574E-03 (1,9,9) 1.213894E-02 (1,10,10) 9.288580E-03
(1,10,1): (1,9,1) -7.224923E-04 (1,10,2) 9.449085E-03 (1,11,1) -5.812518E-04
(1,10,2): (1,9,2) -8.618409E-03 (1,10,1) -9.449085E-03 (1,10,3) 0.104150 (1,11,2) -7.049171E-03
(1,10,3): (1,9,3) -0.100464 (1,10,2) -0.104150 (1,10,4) 0.997584 (1,11,3) -8.353139E-02
(1,10,4): (1,9,4) -1.03435 (1,10,3) -0.997584 (1,10,5) 7.81581 (1,11,4) -0.874854
(1,10,5): (1,9,5) -8.94998 (1,10,4) -7.81581 (1,10,6) 0.429826 (1,11,5) -7.67859
(1,10,6): (1,9,6) -14.3064 (1,10,5) -0.429826 (1,10,7) -0.429826 (1,11,6) -7.98420
(1,10,7): (1,9,7) -8.94998 (1,10,6) 0.429826 (1,10,8) -7.81581 (1,11,7) -7.67859
(1,10,8): (1,9,8) -1.03436 (1,10,7) 7.81581 (1,10,9) -0.997523 (1,11,8) -0.874857
(1,10,9): (1,9,9) -0.100513 (1,10,8) 0.997523 (1,10,10) -0.103365 (1,11,9) -8.357021E-02
(1,10,10): (1,9,10) -9.288580E-03 (1,10,9) 0.103365 (1,11,10) -7.588937E-03
(1,11,1): (1,10,1) 5.812518E-04 (1,11,2) 2.981011E-03 (1,12,1) -2.654408E-04
(1,11,2): (1,10,2) 7.049171E-03 (1,11,1) -2.981011E-03 (1,11,3) 2.765165E-02 (1,12,2) -2.692693E-03
(1,11,3): (1,10,3) 8.353139E-02 (1,11,2) -2.765165E-02 (1,11,4) 0.205311 (1,12,3) -2.587175E-02
(1,11,4): (1,10,4) 0.874854 (1,11,3) -0.205311 (1,11,5) 1.00420 (1,12,4) -0.203439
(1,11,5): (1,10,5) 7.67859 (1,11,4) -1.00420 (1,11,6) 0.141955 (1,12,5) -1.10313
(1,11,6): (1,10,6) 7.98420 (1,11,5) -0.141955 (1,11,7) -0.141955 (1,12,6) -1.22566
(1,11,7): (1,10,7) 7.67859 (1,11,6) 0.141955 (1,11,8) -1.00419 (1,12,7) -1.10313
(1,11,8): (1,10,8) 0.874857 (1,11,7) 1.00419 (1,11,9) -0.205287 (1,12,8) -0.203441
(1,11,9): (1,10,9) 8.357021E-02 (1,11,8) 0.205287 (1,11,10) -2.736922E-02 (1,12,9) -2.589194E-02
(1,11,10): (1,10,10) 7.588937E-03 (1,11,9) 2.736922E-02 (1,12,10) -2.936299E-03
(1,12,1): (1,11,1) 2.654408E-04 (1,12,2) 5.537517E-04 (1,13,1) -6.034387E-05
(1,12,2): (1,11,2) 2.692693E-03 (1,12,1) -5.537517E-04 (1,12,3) 4.472185E-03 (1,13,2) -5.362407E-04
(1,12,3): (1,11,3) 2.587175E-02 (1,12,2) -4.472185E-03 (1,12,4) 2.774042E-02 (1,13,3) -4.448164E-03
(1,12,4): (1,11,4) 0.203439 (1,12,3) -2.774042E-02 (1,12,5) 0.105368 (1,13,4) -2.916843E-02
(1,12,5): (1,11,5) 1.10313 (1,12,4) -0.105368 (1,12,6) 2.070498E-02 (1,13,5) -0.124907
(1,12,6): (1,11,6) 1.22566 (1,12,5) -2.070498E-02 (1,12,7) -2.070493E-02 (1,13,6) -0.143350
(1,12,7): (1,11,7) 1.10313 (1,12,6) 2.070493E-02 (1,12,8) -0.105368 (1,13,7) -0.124907
(1,12,8): (1,11,8) 0.203441 (1,12,7) 0.105368 (1,12,9) -2.773484E-02 (1,13,8) -2.916886E-02
(1,12,9): (1,11,9) 2.589194E-02 (1,12,8) 2.773484E-02 (1,12,10) -4.413246E-03 (1,13,9) -4.453224E-03
(1,12,10): (1,11,10) 2.936299E-03 (1,12,9) 4.413246E-03 (1,13,10) -5.910608E-04
(1,13,1): (1,12,1) 6.034387E-05 (1,13,2) 7.785479E-05 (1,14,1) -9.888006E-06
(1,13,2): (1,12,2) 5.362407E-04 (1,13,1) -7.785479E-05 (1,13,3) 5.602607E-04 (1,14,2) -7.859454E-05
(1,13,3): (1,12,3) 4.448164E-03 (1,13,2) -5.602607E-04 (1,13,4) 3.020511E-03 (1,14,3) -5.792348E-04
(1,13,4): (1,12,4) 2.916843E-02 (1,13,3) -3.020511E-03 (1,13,5) 9.647892E-03 (1,14,4) -3.313514E-03
(1,13,5): (1,12,5) 0.124907 (1,13,4) -9.647892E-03 (1,13,6) 2.284813E-03 (1,14,5) -1.216072E-02
(1,13,6): (1,12,6) 0.143350 (1,13,5) -2.284813E-03 (1,13,7) -2.284804E-03 (1,14,6) -1.423039E-02
(1,13,7): (1,12,7) 0.124907 (1,13,6) 2.284804E-03 (1,13,8) -9.647802E-03 (1,14,7) -1.216073E-02
(1,13,8): (1,12,8) 2.916886E-02 (1,13,7) 9.647802E-03 (1,13,9) -3.019560E-03 (1,14,8) -3.313597E-03
(1,13,9): (1,12,9) 4.453224E-03 (1,13,8) 3.019560E-03 (1,13,10) -5.510841E-04 (1,14,9) -5.801353E-04
(1,13,10): (1,12,10) 5.910608E-04 (1,13,9) 5.510841E-04 (1,14,10) -8.749047E-05
(1,14,1): (1,13,1) 9.888006E-06 (1,14,2) 9.148251E-06 (1,15,1) -1.305049E-06
(1,14,2): (1,13,2) 7.859454E-05 (1,14,1) -9.148251E-06 (1,14,3) 5.962049E-05 (1,15,2) -9.423207E-06
(1,14,3): (1,13,3) 5.792348E-04 (1,14,2) -5.962049E-05 (1,14,4) 2.862398E-04 (1,15,3) -6.291738E-05
(1,14,4): (1,13,4) 3.313514E-03 (1,14,3) -2.862398E-04 (1,14,5) 8.009047E-04 (1,15,4) -3.226846E-04
(1,14,5): (1,13,5) 1.216072E-02 (1,14,4) -8.009047E-04 (1,14,6) 2.153910E-04 (1,15,5) -1.057464E-03
(1,14,6): (1,13,6) 1.423039E-02 (1,14,5) -2.153910E-04 (1,14,7) -2.153885E-04 (1,15,6) -1.253215E-03
(1,14,7): (1,13,7) 1.216073E-02 (1,14,6) 2.153885E-04 (1,14,8) -8.008903E-04 (1,15,7) -1.057465E-03
(1,14,8): (1,13,8) 3.313597E-03 (1,14,7) 8.008903E-04 (1,14,9) -2.861064E-04 (1,15,8) -3.226969E-04
(1,14,9): (1,13,9) 5.801353E-04 (1,14,8) 2.861064E-04 (1,14,10) -5.843951E-05 (1,15,9) -6.304475E-05
(1,14,10): (1,13,10) 8.749047E-05 (1,14,9) 5.843951E-05 (1,15,10) -1.058633E-05
(1,15,1): (1,14,1) 1.305049E-06 (1,15,2) 1.030093E-06
(1,15,2): (1,14,2) 9.423207E-06 (1,15,1) -1.030093E-06 (1,15,3) 6.126318E-06
(1,15,3): (1,14,3) 6.291738E-05 (1,15,2) -6.126318E-06 (1,15,4) 2.647273E-05
(1,15,4): (1,14,4) 3.226846E-04 (1,15,3) -2.647273E-05 (1,15,5) 6.612713E-05
(1,15,5): (1,14,5) 1.057464E-03 (1,15,4) -6.612713E-05 (1,15,6) 1.964230E-05
(1,15,6): (1,14,6) 1.253215E-03 (1,15,5) -1.964230E-05 (1,15,7) -1.964080E-05
(1,15,7): (1,14,7) 1.057465E-03 (1,15,6) 1.964080E-05 (1,15,8) -6.612411E-05
(1,15,8): (1,14,8) 3.226969E-04 (1,15,7) 6.612411E-05 (1,15,9) -2.645434E-05
(1,15,9): (1,14,9) 6.304475E-05 (1,15,8) 2.645434E-05 (1,15,10) -5.981086E-06
(1,15,10): (1,14,10) 1.058633E-05 (1,15,9) 5.981086E-06

 WEL PACKAGE (WEL-1) FLOW RATES   PERIOD      2   STEP        6
 ----------------------------------------------------------------------------------------
   NUMBER   CELLID                    RATE       NAME                                    
 ----------------------------------------------------------------------------------------
     1      (1,8,6)              -270.00000      WEL                                     
 ----------------------------------------------------------------------------------------




 API PACKAGE (MAR) FLOW RATES   PERIOD      2   STEP        6
 -----------------------------------------------
   NUMBER   CELLID                    RATE      
 -----------------------------------------------
     1      (1,6,5)               46.666667     
     2      (1,6,6)               46.666667     
     3      (1,6,7)               46.666667     
     4      (1,10,5)              43.333333     
     5      (1,10,6)              43.333333     
     6      (1,10,7)              43.333333     
 -----------------------------------------------



1
  HEAD IN LAYER   1 AT END OF TIME STEP   6 IN STRESS PERIOD    2
  ---------------------------------------------------------------------------

            1           2           3           4           5           6           7           8           9          10
 ........................................................................................................................
   1   2.0320E-08  1.3197E-07  7.9412E-07  3.6543E-06  1.0801E-05  1.2933E-05  1.0801E-05  3.6545E-06  7.9616E-07  1.4973E-07
   2   1.6127E-07  1.1498E-06  7.5910E-06  3.8521E-05  1.2510E-04  1.4851E-04  1.2510E-04  3.8522E-05  7.6068E-06  1.2932E-06
   3   1.2294E-06  9.6410E-06  7.0180E-05  3.9663E-04  1.4398E-03  1.6888E-03  1.4398E-03  3.9664E-04  7.0293E-05  1.0745E-05
   4   7.7504E-06  6.7595E-05  5.5097E-04  3.5493E-03  1.4931E-02  1.7196E-02  1.4931E-02  3.5493E-03  5.5163E-04  7.4624E-05
   5   3.6454E-05  3.5878E-04  3.3483E-03  2.5503E-02  0.1328      0.1483      0.1328      2.5503E-02  3.3511E-03  3.9215E-04
   6   9.9452E-05  1.1225E-03  1.2386E-02  0.1191      0.8955      0.9416      0.8955      0.1191      1.2393E-02  1.2144E-03
   7   2.2235E-05  2.0109E-04  1.6507E-03  9.6848E-03  1.5290E-02 -0.4333      1.5290E-02  9.6850E-03  1.6525E-03  2.2133E-04
   8  -2.5125E-05 -3.5142E-04 -4.6945E-03 -5.5439E-02 -0.5610      -4.768     -0.5610     -5.5439E-02 -4.6960E-03 -3.7502E-04
   9   1.9592E-05  1.7490E-04  1.4048E-03  7.8026E-03  5.4031E-03 -0.4448      5.4031E-03  7.8028E-03  1.4064E-03  1.9273E-04
  10   9.1841E-05  1.0367E-03  1.1440E-02  0.1101      0.8317      0.8712      0.8317      0.1101      1.1446E-02  1.1215E-03
  11   3.3716E-05  3.3181E-04  3.0961E-03  2.3579E-02  0.1228      0.1368      0.1228      2.3579E-02  3.0987E-03  3.6267E-04
  12   7.1724E-06  6.2547E-05  5.0974E-04  3.2829E-03  1.3805E-02  1.5872E-02  1.3805E-02  3.2829E-03  5.1035E-04  6.9052E-05
  13   1.1380E-06  8.9235E-06  6.4949E-05  3.6699E-04  1.3316E-03  1.5601E-03  1.3317E-03  3.6700E-04  6.5054E-05  9.9462E-06
  14   1.4919E-07  1.0640E-06  7.0261E-06  3.5650E-05  1.1574E-04  1.3728E-04  1.1574E-04  3.5652E-05  7.0411E-06  1.1971E-06
  15   1.8690E-08  1.2170E-07  7.3433E-07  3.3816E-06  9.9943E-06  1.1959E-05  9.9945E-06  3.3821E-06  7.3662E-07  1.3851E-07

 HEAD WILL BE SAVED ON UNIT 1043 AT END OF TIME STEP    6, STRESS PERIOD    2


  VOLUME BUDGET FOR ENTIRE MODEL AT END OF TIME STEP    6, STRESS PERIOD   2
  ---------------------------------------------------------------------------------------------------

     CUMULATIVE VOLUME      L**3       RATES FOR THIS TIME STEP      L**3/T          PACKAGE NAME    
     ------------------                 ------------------------                     ----------------

           IN:                                      IN:
           ---                                      ---
              STO-SS =           5.7266                STO-SS =       7.4236E-02     STORAGE                          
              STO-SY =       13828.5480                STO-SY =         200.7176     STORAGE                          
                 WEL =           0.0000                   WEL =           0.0000     WEL-1                            
                 API =       16200.0000                   API =         270.0000     MAR                              
                 CHD =       2.8247E-08                   CHD =           0.0000     CHD_0                            

            TOTAL IN =       30034.2746              TOTAL IN =         470.7918

          OUT:                                     OUT:
          ----                                     ----
              STO-SS =           7.1534                STO-SS =           0.1057     STORAGE                          
              STO-SY =       13827.1212                STO-SY =         200.6860     STORAGE                          
                 WEL =       16200.0000                   WEL =         270.0000     WEL-1                            
                 API =           0.0000                   API =           0.0000     MAR                              
                 CHD =       3.0388E-08                   CHD =           0.0000     CHD_0                            

           TOTAL OUT =       30034.2746             TOTAL OUT =         470.7918

            IN - OUT =      -3.5860E-08              IN - OUT =      -5.2023E-10

 PERCENT DISCREPANCY =          -0.00     PERCENT DISCREPANCY =          -0.00




         TIME SUMMARY AT END OF TIME STEP    6 IN STRESS PERIOD    2
                    SECONDS     MINUTES      HOURS       DAYS        YEARS
                    -----------------------------------------------------------
   TIME STEP LENGTH 8.64000E+05  14400.      240.00      10.000     2.73785E-02
 STRESS PERIOD TIME 5.18400E+06  86400.      1440.0      60.000     0.16427    
         TOTAL TIME 5.27040E+06  87840.      1464.0      61.000     0.16701    


end timestep


start timestep kper="2" kstp="7" mode="normal"

 UBDSV1 SAVING           STO-SS ON UNIT   1042 AT TIME STEP      7, STRESS PERIOD      2
 UBDSV1 SAVING           STO-SY ON UNIT   1042 AT TIME STEP      7, STRESS PERIOD      2
 UBDSV1 SAVING     FLOW-JA-FACE ON UNIT   1042 AT TIME STEP      7, STRESS PERIOD      2
 UBDSV06 SAVING       DATA-SPDIS IN MODEL GWF              PACKAGE NPF             CONNECTED TO MODEL GWF              PACKAGE NPF              ON UNIT   1042 AT TIME STEP      7, STRESS PERIOD      2
 UBDSV06 SAVING              WEL IN MODEL GWF              PACKAGE GWF             CONNECTED TO MODEL GWF              PACKAGE WEL-1            ON UNIT   1042 AT TIME STEP      7, STRESS PERIOD      2
 UBDSV06 SAVING              API IN MODEL GWF              PACKAGE GWF             CONNECTED TO MODEL GWF              PACKAGE MAR              ON UNIT   1042 AT TIME STEP      7, STRESS PERIOD      2
 UBDSV06 SAVING              CHD IN MODEL GWF              PACKAGE GWF             CONNECTED TO MODEL GWF              PACKAGE CHD_0            ON UNIT   1042 AT TIME STEP      7, STRESS PERIOD      2

    CALCULATED INTERCELL FLOW FOR PERIOD 2 STEP 7
(1,1,1): (1,1,2) 2.430008E-06 (1,2,1) 3.069805E-06
(1,1,2): (1,1,1) -2.430008E-06 (1,1,3) 1.353991E-05 (1,2,2) 2.067239E-05
(1,1,3): (1,1,2) -1.353991E-05 (1,1,4) 5.466365E-05 (1,2,3) 1.290965E-04
(1,1,4): (1,1,3) -5.466365E-05 (1,1,5) 1.277330E-04 (1,2,4) 6.186398E-04
(1,1,5): (1,1,4) -1.277330E-04 (1,1,6) 3.987727E-05 (1,2,5) 1.905428E-03
(1,1,6): (1,1,5) -3.987727E-05 (1,1,7) -3.987697E-05 (1,2,6) 2.268752E-03
(1,1,7): (1,1,6) 3.987697E-05 (1,1,8) -1.277279E-04 (1,2,7) 1.905431E-03
(1,1,8): (1,1,7) 1.277279E-04 (1,1,9) -5.461691E-05 (1,2,8) 6.186730E-04
(1,1,9): (1,1,8) 5.461691E-05 (1,1,10) -1.317553E-05 (1,2,9) 1.294135E-04
(1,1,10): (1,1,9) 1.317553E-05 (1,2,10) 2.338832E-05
(1,2,1): (1,1,1) -3.069805E-06 (1,2,2) 2.003260E-05 (1,3,1) 2.176063E-05
(1,2,2): (1,1,2) -2.067239E-05 (1,2,1) -2.003260E-05 (1,2,3) 1.219640E-04 (1,3,2) 1.605107E-04
(1,2,3): (1,1,3) -1.290965E-04 (1,2,2) -1.219640E-04 (1,2,4) 5.442065E-04 (1,3,3) 1.100237E-03
(1,2,4): (1,1,4) -6.186398E-04 (1,2,3) -5.442065E-04 (1,2,5) 1.414515E-03 (1,3,4) 5.842214E-03
(1,2,5): (1,1,5) -1.905428E-03 (1,2,4) -1.414515E-03 (1,2,6) 4.031951E-04 (1,3,5) 1.999022E-02
(1,2,6): (1,1,6) -2.268752E-03 (1,2,5) -4.031951E-04 (1,2,7) -4.031916E-04 (1,3,6) 2.353106E-02
(1,2,7): (1,1,7) -1.905431E-03 (1,2,6) 4.031916E-04 (1,2,8) -1.414480E-03 (1,3,7) 1.999024E-02
(1,2,8): (1,1,8) -6.186730E-04 (1,2,7) 1.414480E-03 (1,2,9) -5.438761E-04 (1,3,8) 5.842420E-03
(1,2,9): (1,1,9) -1.294135E-04 (1,2,8) 5.438761E-04 (1,2,10) -1.192007E-04 (1,3,9) 1.102339E-03
(1,2,10): (1,1,10) -2.338832E-05 (1,2,9) 1.192007E-04 (1,3,10) 1.799443E-04
(1,3,1): (1,2,1) -2.176063E-05 (1,3,2) 1.587827E-04 (1,4,1) 1.233933E-04
(1,3,2): (1,2,2) -1.605107E-04 (1,3,1) -1.587827E-04 (1,3,3) 1.061690E-03 (1,4,2) 1.012100E-03
(1,3,3): (1,2,3) -1.100237E-03 (1,3,2) -1.061690E-03 (1,3,4) 5.286157E-03 (1,4,3) 7.760626E-03
(1,3,4): (1,2,4) -5.842214E-03 (1,3,3) -5.286157E-03 (1,3,5) 1.556190E-02 (1,4,4) 4.689739E-02
(1,3,5): (1,2,5) -1.999022E-02 (1,3,4) -1.556190E-02 (1,3,6) 3.943336E-03 (1,4,5) 0.185533
(1,3,6): (1,2,6) -2.353106E-02 (1,3,5) -3.943336E-03 (1,3,7) -3.943314E-03 (1,4,6) 0.214398
(1,3,7): (1,2,7) -1.999024E-02 (1,3,6) 3.943314E-03 (1,3,8) -1.556168E-02 (1,4,7) 0.185533
(1,3,8): (1,2,8) -5.842420E-03 (1,3,7) 1.556168E-02 (1,3,9) -5.283931E-03 (1,4,8) 4.689839E-02
(1,3,9): (1,2,9) -1.102339E-03 (1,3,8) 5.283931E-03 (1,3,10) -1.041595E-03 (1,4,9) 7.771649E-03
(1,3,10): (1,2,10) -1.799443E-04 (1,3,9) 1.041595E-03 (1,4,10) 1.123393E-03
(1,4,1): (1,3,1) -1.233933E-04 (1,4,2) 1.047490E-03 (1,5,1) 5.005719E-04
(1,4,2): (1,3,2) -1.012100E-03 (1,4,1) -1.047490E-03 (1,4,3) 7.810219E-03 (1,5,2) 4.659167E-03
(1,4,3): (1,3,3) -7.760626E-03 (1,4,2) -7.810219E-03 (1,4,4) 4.442196E-02 (1,5,3) 4.110364E-02
(1,4,4): (1,3,4) -4.689739E-02 (1,4,3) -4.442196E-02 (1,4,5) 0.154154 (1,5,4) 0.295569
(1,4,5): (1,3,5) -0.185533 (1,4,4) -0.154154 (1,4,6) 3.275632E-02 (1,5,5) 1.46607
(1,4,6): (1,3,6) -0.214398 (1,4,5) -3.275632E-02 (1,4,7) -3.275622E-02 (1,5,6) 1.63981
(1,4,7): (1,3,7) -0.185533 (1,4,6) 3.275622E-02 (1,4,8) -0.154153 (1,5,7) 1.46607
(1,4,8): (1,3,8) -4.689839E-02 (1,4,7) 0.154153 (1,4,9) -4.440970E-02 (1,5,8) 0.295572
(1,4,9): (1,3,9) -7.771649E-03 (1,4,8) 4.440970E-02 (1,4,10) -7.689845E-03 (1,5,9) 4.114444E-02
(1,4,10): (1,3,10) -1.123393E-03 (1,4,9) 7.689845E-03 (1,5,10) 5.115389E-03
(1,5,1): (1,4,1) -5.005719E-04 (1,5,2) 5.206108E-03 (1,6,1) 9.919738E-04
(1,5,2): (1,4,2) -4.659167E-03 (1,5,1) -5.206108E-03 (1,5,3) 4.425584E-02 (1,6,2) 1.097769E-02
(1,5,3): (1,4,3) -4.110364E-02 (1,5,2) -4.425584E-02 (1,5,4) 0.298895 (1,6,3) 0.118747
(1,5,4): (1,4,4) -0.295569 (1,5,3) -0.298895 (1,5,5) 1.32304 (1,6,4) 1.13075
(1,5,5): (1,4,5) -1.46607 (1,5,4) -1.32304 (1,5,6) 0.204131 (1,6,5) 9.02608
(1,5,6): (1,4,6) -1.63981 (1,5,5) -0.204131 (1,5,7) -0.204131 (1,6,6) 9.39808
(1,5,7): (1,4,7) -1.46607 (1,5,6) 0.204131 (1,5,8) -1.32303 (1,6,7) 9.02608
(1,5,8): (1,4,8) -0.295572 (1,5,7) 1.32303 (1,5,9) -0.298846 (1,6,8) 1.13076
(1,5,9): (1,4,9) -4.114444E-02 (1,5,8) 0.298846 (1,5,10) -4.371982E-02 (1,6,9) 0.118819
(1,5,10): (1,4,10) -5.115389E-03 (1,5,9) 4.371982E-02 (1,6,10) 1.189299E-02
(1,6,1): (1,5,1) -9.919738E-04 (1,6,2) 1.519224E-02 (1,7,1) -1.259726E-03
(1,6,2): (1,5,2) -1.097769E-02 (1,6,1) -1.519224E-02 (1,6,3) 0.152061 (1,7,2) -1.371647E-02
(1,6,3): (1,5,3) -0.118747 (1,6,2) -0.152061 (1,6,4) 1.31269 (1,7,3) -0.145959
(1,6,4): (1,5,4) -1.13075 (1,6,3) -1.31269 (1,6,5) 9.23165 (1,7,4) -1.36584
(1,6,5): (1,5,5) -9.02608 (1,6,4) -9.23165 (1,6,6) 0.552102 (1,7,5) -10.7447
(1,6,6): (1,5,6) -9.39808 (1,6,5) -0.552102 (1,6,7) -0.552101 (1,7,6) -17.1650
(1,6,7): (1,5,7) -9.02608 (1,6,6) 0.552101 (1,6,8) -9.23164 (1,7,7) -10.7447
(1,6,8): (1,5,8) -1.13076 (1,6,7) 9.23164 (1,6,9) -1.31257 (1,7,8) -1.36585
(1,6,9): (1,5,9) -0.118819 (1,6,8) 1.31257 (1,6,10) -0.150680 (1,7,9) -0.146050
(1,6,10): (1,5,10) -1.189299E-02 (1,6,9) 0.150680 (1,7,10) -1.487746E-02
(1,7,1): (1,6,1) 1.259726E-03 (1,7,2) 2.735316E-03 (1,8,1) -8.099484E-04
(1,7,2): (1,6,2) 1.371647E-02 (1,7,1) -2.735316E-03 (1,7,3) 1.981132E-02 (1,8,2) -8.663469E-03
(1,7,3): (1,6,3) 0.145959 (1,7,2) -1.981132E-02 (1,7,4) 9.343080E-02 (1,8,3) -9.117609E-02
(1,7,4): (1,6,4) 1.36584 (1,7,3) -9.343080E-02 (1,7,5) -3.105697E-02 (1,8,4) -0.853213
(1,7,5): (1,6,5) 10.7447 (1,7,4) 3.105697E-02 (1,7,6) -5.27721 (1,8,5) -6.85272
(1,7,6): (1,6,6) 17.1650 (1,7,5) 5.27721 (1,7,7) 5.27721 (1,8,6) -44.8079
(1,7,7): (1,6,7) 10.7447 (1,7,6) -5.27721 (1,7,8) 3.105975E-02 (1,8,7) -6.85272
(1,7,8): (1,6,8) 1.36585 (1,7,7) -3.105975E-02 (1,7,9) -9.339997E-02 (1,8,8) -0.853217
(1,7,9): (1,6,9) 0.146050 (1,7,8) 9.339997E-02 (1,7,10) -1.950068E-02 (1,8,9) -9.123610E-02
(1,7,10): (1,6,10) 1.487746E-02 (1,7,9) 1.950068E-02 (1,8,10) -9.408620E-03
(1,8,1): (1,7,1) 8.099484E-04 (1,8,2) -5.118002E-03 (1,9,1) 7.628595E-04
(1,8,2): (1,7,2) 8.663469E-03 (1,8,1) 5.118002E-03 (1,8,3) -6.268174E-02 (1,9,2) 8.235577E-03
(1,8,3): (1,7,3) 9.117609E-02 (1,8,2) 6.268174E-02 (1,8,4) -0.667289 (1,9,3) 8.748867E-02
(1,8,4): (1,7,4) 0.853213 (1,8,3) 0.667289 (1,8,5) -5.98134 (1,9,4) 0.827243
(1,8,5): (1,7,5) 6.85272 (1,8,4) 5.98134 (1,8,6) -42.5962 (1,9,5) 6.72109
(1,8,6): (1,7,6) 44.8079 (1,8,5) 42.5962 (1,8,7) 42.5962 (1,9,6) 44.6040
(1,8,7): (1,7,7) 6.85272 (1,8,6) -42.5962 (1,8,8) 5.98134 (1,9,7) 6.72109
(1,8,8): (1,7,8) 0.853217 (1,8,7) -5.98134 (1,8,9) 0.667264 (1,9,8) 0.827247
(1,8,9): (1,7,9) 9.123610E-02 (1,8,8) -0.667264 (1,8,10) 6.230695E-02 (1,9,9) 8.754476E-02
(1,8,10): (1,7,10) 9.408620E-03 (1,8,9) -6.230695E-02 (1,9,10) 8.937896E-03
(1,9,1): (1,8,1) -7.628595E-04 (1,9,2) 2.354538E-03 (1,10,1) 1.179897E-03
(1,9,2): (1,8,2) -8.235577E-03 (1,9,1) -2.354538E-03 (1,9,3) 1.655445E-02 (1,10,2) 1.284326E-02
(1,9,3): (1,8,3) -8.748867E-02 (1,9,2) -1.655445E-02 (1,9,4) 7.134284E-02 (1,10,3) 0.136590
(1,9,4): (1,8,4) -0.827243 (1,9,3) -7.134284E-02 (1,9,5) -0.128650 (1,10,4) 1.27721
(1,9,5): (1,8,5) -6.72109 (1,9,4) 0.128650 (1,9,6) -5.29113 (1,10,5) 10.0417
(1,9,6): (1,8,6) -44.6040 (1,9,5) 5.29113 (1,9,7) 5.29113 (1,10,6) 16.3437
(1,9,7): (1,8,7) -6.72109 (1,9,6) -5.29113 (1,9,8) 0.128652 (1,10,7) 10.0417
(1,9,8): (1,8,8) -0.827247 (1,9,7) -0.128652 (1,9,9) -7.131560E-02 (1,10,8) 1.27721
(1,9,9): (1,8,9) -8.754476E-02 (1,9,8) 7.131560E-02 (1,9,10) -1.628274E-02 (1,10,9) 0.136676
(1,9,10): (1,8,10) -8.937896E-03 (1,9,9) 1.628274E-02 (1,10,10) 1.393066E-02
(1,10,1): (1,9,1) -1.179897E-03 (1,10,2) 1.401804E-02 (1,11,1) -9.141189E-04
(1,10,2): (1,9,2) -1.284326E-02 (1,10,1) -1.401804E-02 (1,10,3) 0.140306 (1,11,2) -1.011975E-02
(1,10,3): (1,9,3) -0.136590 (1,10,2) -0.140306 (1,10,4) 1.21123 (1,11,3) -0.109498
(1,10,4): (1,9,4) -1.27721 (1,10,3) -1.21123 (1,10,5) 8.52579 (1,11,4) -1.04308
(1,10,5): (1,9,5) -10.0417 (1,10,4) -8.52579 (1,10,6) 0.462755 (1,11,5) -8.33569
(1,10,6): (1,9,6) -16.3437 (1,10,5) -0.462755 (1,10,7) -0.462754 (1,11,6) -8.63277
(1,10,7): (1,9,7) -10.0417 (1,10,6) 0.462754 (1,10,8) -8.52579 (1,11,7) -8.33569
(1,10,8): (1,9,8) -1.27721 (1,10,7) 8.52579 (1,10,9) -1.21112 (1,11,8) -1.04308
(1,10,9): (1,9,9) -0.136676 (1,10,8) 1.21112 (1,10,10) -0.139031 (1,11,9) -0.109563
(1,10,10): (1,9,10) -1.393066E-02 (1,10,9) 0.139031 (1,11,10) -1.096323E-02
(1,11,1): (1,10,1) 9.141189E-04 (1,11,2) 4.812047E-03 (1,12,1) -4.626517E-04
(1,11,2): (1,10,2) 1.011975E-02 (1,11,1) -4.812047E-03 (1,11,3) 4.089748E-02 (1,12,2) -4.305835E-03
(1,11,3): (1,10,3) 0.109498 (1,11,2) -4.089748E-02 (1,11,4) 0.276121 (1,12,3) -3.798004E-02
(1,11,4): (1,10,4) 1.04308 (1,11,3) -0.276121 (1,11,5) 1.22168 (1,12,4) -0.273030
(1,11,5): (1,10,5) 8.33569 (1,11,4) -1.22168 (1,11,6) 0.183693 (1,12,5) -1.35368
(1,11,6): (1,10,6) 8.63277 (1,11,5) -0.183693 (1,11,7) -0.183693 (1,12,6) -1.50948
(1,11,7): (1,10,7) 8.33569 (1,11,6) 0.183693 (1,11,8) -1.22167 (1,12,7) -1.35368
(1,11,8): (1,10,8) 1.04308 (1,11,7) 1.22167 (1,11,9) -0.276075 (1,12,8) -0.273033
(1,11,9): (1,10,9) 0.109563 (1,11,8) 0.276075 (1,11,10) -4.040199E-02 (1,12,9) -3.801775E-02
(1,11,10): (1,10,10) 1.096323E-02 (1,11,9) 4.040199E-02 (1,12,10) -4.727492E-03
(1,12,1): (1,11,1) 4.626517E-04 (1,12,2) 9.688438E-04 (1,13,1) -1.141390E-04
(1,12,2): (1,11,2) 4.305835E-03 (1,12,1) -9.688438E-04 (1,12,3) 7.222291E-03 (1,13,2) -9.360680E-04
(1,12,3): (1,11,3) 3.798004E-02 (1,12,2) -7.222291E-03 (1,12,4) 4.106386E-02 (1,13,3) -7.176194E-03
(1,12,4): (1,11,4) 0.273030 (1,12,3) -4.106386E-02 (1,12,5) 0.142410 (1,13,4) -4.335218E-02
(1,12,5): (1,11,5) 1.35368 (1,12,4) -0.142410 (1,12,6) 2.985238E-02 (1,13,5) -0.171416
(1,12,6): (1,11,6) 1.50948 (1,12,5) -2.985238E-02 (1,12,7) -2.985228E-02 (1,13,6) -0.197699
(1,12,7): (1,11,7) 1.35368 (1,12,6) 2.985228E-02 (1,12,8) -0.142409 (1,13,7) -0.171416
(1,12,8): (1,11,8) 0.273033 (1,12,7) 0.142409 (1,12,9) -4.105253E-02 (1,13,8) -4.335311E-02
(1,12,9): (1,11,9) 3.801775E-02 (1,12,8) 4.105253E-02 (1,12,10) -7.110939E-03 (1,13,9) -7.186389E-03
(1,12,10): (1,11,10) 4.727492E-03 (1,12,9) 7.110939E-03 (1,13,10) -1.039012E-03
(1,13,1): (1,12,1) 1.141390E-04 (1,13,2) 1.469146E-04 (1,14,1) -2.013708E-05
(1,13,2): (1,12,2) 9.360680E-04 (1,13,1) -1.469146E-04 (1,13,3) 9.821625E-04 (1,14,2) -1.485147E-04
(1,13,3): (1,12,3) 7.176194E-03 (1,13,2) -9.821625E-04 (1,13,4) 4.888702E-03 (1,14,3) -1.017821E-03
(1,13,4): (1,12,4) 4.335218E-02 (1,13,3) -4.888702E-03 (1,13,5) 1.438336E-02 (1,14,4) -5.403099E-03
(1,13,5): (1,12,5) 0.171416 (1,13,4) -1.438336E-02 (1,13,6) 3.613712E-03 (1,14,5) -1.847910E-02
(1,13,6): (1,12,6) 0.197699 (1,13,5) -3.613712E-03 (1,13,7) -3.613691E-03 (1,14,6) -2.172279E-02
(1,13,7): (1,12,7) 0.171416 (1,13,6) 3.613691E-03 (1,13,8) -1.438315E-02 (1,14,7) -1.847912E-02
(1,13,8): (1,12,8) 4.335311E-02 (1,13,7) 1.438315E-02 (1,13,9) -4.886641E-03 (1,14,8) -5.403289E-03
(1,13,9): (1,12,9) 7.186389E-03 (1,13,8) 4.886641E-03 (1,13,10) -9.635660E-04 (1,14,9) -1.019765E-03
(1,13,10): (1,12,10) 1.039012E-03 (1,13,9) 9.635660E-04 (1,14,10) -1.664976E-04
(1,14,1): (1,13,1) 2.013708E-05 (1,14,2) 1.853699E-05 (1,15,1) -2.841536E-06
(1,14,2): (1,13,2) 1.485147E-04 (1,14,1) -1.853699E-05 (1,14,3) 1.128564E-04 (1,15,2) -1.913267E-05
(1,14,3): (1,13,3) 1.017821E-03 (1,14,2) -1.128564E-04 (1,14,4) 5.034465E-04 (1,15,3) -1.194610E-04
(1,14,4): (1,13,4) 5.403099E-03 (1,14,3) -5.034465E-04 (1,14,5) 1.307893E-03 (1,15,4) -5.723284E-04
(1,14,5): (1,13,5) 1.847910E-02 (1,14,4) -1.307893E-03 (1,14,6) 3.706118E-04 (1,15,5) -1.762086E-03
(1,14,6): (1,13,6) 2.172279E-02 (1,14,5) -3.706118E-04 (1,14,7) -3.706071E-04 (1,15,6) -2.095977E-03
(1,14,7): (1,13,7) 1.847912E-02 (1,14,6) 3.706071E-04 (1,14,8) -1.307859E-03 (1,15,7) -1.762089E-03
(1,14,8): (1,13,8) 5.403289E-03 (1,14,7) 1.307859E-03 (1,14,9) -5.031397E-04 (1,15,8) -5.723589E-04
(1,14,9): (1,13,9) 1.019765E-03 (1,14,8) 5.031397E-04 (1,14,10) -1.102987E-04 (1,15,9) -1.197541E-04
(1,14,10): (1,13,10) 1.664976E-04 (1,14,9) 1.102987E-04 (1,15,10) -2.164642E-05
(1,15,1): (1,14,1) 2.841536E-06 (1,15,2) 2.245855E-06
(1,15,2): (1,14,2) 1.913267E-05 (1,15,1) -2.245855E-06 (1,15,3) 1.252800E-05
(1,15,3): (1,14,3) 1.194610E-04 (1,15,2) -1.252800E-05 (1,15,4) 5.057951E-05
(1,15,4): (1,14,4) 5.723284E-04 (1,15,3) -5.057951E-05 (1,15,5) 1.181404E-04
(1,15,5): (1,14,5) 1.762086E-03 (1,15,4) -1.181404E-04 (1,15,6) 3.672649E-05
(1,15,6): (1,14,6) 2.095977E-03 (1,15,5) -3.672649E-05 (1,15,7) -3.672464E-05
(1,15,7): (1,14,7) 1.762089E-03 (1,15,6) 3.672464E-05 (1,15,8) -1.181343E-04
(1,15,8): (1,14,8) 5.723589E-04 (1,15,7) 1.181343E-04 (1,15,9) -5.053528E-05
(1,15,9): (1,14,9) 1.197541E-04 (1,15,8) 5.053528E-05 (1,15,10) -1.219102E-05
(1,15,10): (1,14,10) 2.164642E-05 (1,15,9) 1.219102E-05

 WEL PACKAGE (WEL-1) FLOW RATES   PERIOD      2   STEP        7
 ----------------------------------------------------------------------------------------
   NUMBER   CELLID                    RATE       NAME                                    
 ----------------------------------------------------------------------------------------
     1      (1,8,6)              -270.00000      WEL                                     
 ----------------------------------------------------------------------------------------




 API PACKAGE (MAR) FLOW RATES   PERIOD      2   STEP        7
 -----------------------------------------------
   NUMBER   CELLID                    RATE      
 -----------------------------------------------
     1      (1,6,5)               46.666667     
     2      (1,6,6)               46.666667     
     3      (1,6,7)               46.666667     
     4      (1,10,5)              43.333333     
     5      (1,10,6)              43.333333     
     6      (1,10,7)              43.333333     
 -----------------------------------------------



1
  HEAD IN LAYER   1 AT END OF TIME STEP   7 IN STRESS PERIOD    2
  ---------------------------------------------------------------------------

            1           2           3           4           5           6           7           8           9          10
 ........................................................................................................................
   1   4.7805E-08  2.9081E-07  1.6448E-06  7.1112E-06  1.9884E-05  2.3872E-05  1.9884E-05  7.1117E-06  1.6500E-06  3.3245E-07
   2   3.5479E-07  2.3580E-06  1.4554E-05  6.8975E-05  2.1042E-04  2.5074E-04  2.1042E-04  6.8979E-05  1.4591E-05  2.6713E-06
   3   2.5308E-06  1.8409E-05  1.2458E-04  6.5316E-04  2.2090E-03  2.6032E-03  2.2090E-03  6.5318E-04  1.2482E-04  2.0666E-05
   4   1.4870E-05  1.1962E-04  9.0057E-04  5.3404E-03  2.0724E-02  2.3992E-02  2.0724E-02  5.3405E-03  9.0192E-04  1.3300E-04
   5   6.4927E-05  5.8551E-04  5.0089E-03  3.4795E-02  0.1650      0.1850      0.1650      3.4795E-02  5.0143E-03  6.4451E-04
   6   1.6412E-04  1.6831E-03  1.6864E-02  0.1462      0.9865       1.037      0.9865      0.1462      1.6876E-02  1.8336E-03
   7   3.8152E-05  3.1168E-04  2.2924E-03  1.1625E-02  8.5225E-03 -0.5187      8.5225E-03  1.1625E-02  2.2957E-03  3.4612E-04
   8  -4.2842E-05 -5.5464E-04 -6.8232E-03 -7.3598E-02 -0.6762      -5.245     -0.6762     -7.3598E-02 -6.8258E-03 -5.9471E-04
   9   3.3443E-05  2.6889E-04  1.9240E-03  9.0518E-03 -3.8015E-03 -0.5331     -3.8015E-03  9.0521E-03  1.9270E-03  2.9905E-04
  10   1.5143E-04  1.5530E-03  1.5562E-02  0.1351      0.9161      0.9583      0.9161      0.1351      1.5573E-02  1.6919E-03
  11   6.0021E-05  5.4120E-04  4.6291E-03  3.2153E-02  0.1525      0.1705      0.1525      3.2153E-02  4.6341E-03  5.9574E-04
  12   1.3756E-05  1.1064E-04  8.3281E-04  4.9372E-03  1.9151E-02  2.2130E-02  1.9151E-02  4.9373E-03  8.3406E-04  1.2302E-04
  13   2.3420E-06  1.7033E-05  1.1525E-04  6.0409E-04  2.0421E-03  2.4034E-03  2.0421E-03  6.0411E-04  1.1548E-04  1.9122E-05
  14   3.2827E-07  2.1820E-06  1.3468E-05  6.3812E-05  1.9460E-04  2.3166E-04  1.9460E-04  6.3816E-05  1.3502E-05  2.4723E-06
  15   4.4114E-08  2.6870E-07  1.5215E-06  6.5794E-06  1.8393E-05  2.2066E-05  1.8394E-05  6.5802E-06  1.5267E-06  3.0762E-07

 HEAD WILL BE SAVED ON UNIT 1043 AT END OF TIME STEP    7, STRESS PERIOD    2


  VOLUME BUDGET FOR ENTIRE MODEL AT END OF TIME STEP    7, STRESS PERIOD   2
  ---------------------------------------------------------------------------------------------------

     CUMULATIVE VOLUME      L**3       RATES FOR THIS TIME STEP      L**3/T          PACKAGE NAME    
     ------------------                 ------------------------                     ----------------

           IN:                                      IN:
           ---                                      ---
              STO-SS =           6.4189                STO-SS =       6.9229E-02     STORAGE                          
              STO-SY =       15736.2941                STO-SY =         190.7746     STORAGE                          
                 WEL =           0.0000                   WEL =           0.0000     WEL-1                            
                 API =       18900.0000                   API =         270.0000     MAR                              
                 CHD =       2.8247E-08                   CHD =           0.0000     CHD_0                            

            TOTAL IN =       34642.7130              TOTAL IN =         460.8438

          OUT:                                     OUT:
          ----                                     ----
              STO-SS =           8.1608                STO-SS =           0.1007     STORAGE                          
              STO-SY =       15734.5522                STO-SY =         190.7431     STORAGE                          
                 WEL =       18900.0000                   WEL =         270.0000     WEL-1                            
                 API =           0.0000                   API =           0.0000     MAR                              
                 CHD =       3.0388E-08                   CHD =           0.0000     CHD_0                            

           TOTAL OUT =       34642.7130             TOTAL OUT =         460.8438

            IN - OUT =      -3.9778E-08              IN - OUT =      -3.9256E-10

 PERCENT DISCREPANCY =          -0.00     PERCENT DISCREPANCY =          -0.00




         TIME SUMMARY AT END OF TIME STEP    7 IN STRESS PERIOD    2
                    SECONDS     MINUTES      HOURS       DAYS        YEARS
                    -----------------------------------------------------------
   TIME STEP LENGTH 8.64000E+05  14400.      240.00      10.000     2.73785E-02
 STRESS PERIOD TIME 6.04800E+06 1.00800E+05  1680.0      70.000     0.19165    
         TOTAL TIME 6.13440E+06 1.02240E+05  1704.0      71.000     0.19439    


end timestep


start timestep kper="2" kstp="8" mode="normal"

 UBDSV1 SAVING           STO-SS ON UNIT   1042 AT TIME STEP      8, STRESS PERIOD      2
 UBDSV1 SAVING           STO-SY ON UNIT   1042 AT TIME STEP      8, STRESS PERIOD      2
 UBDSV1 SAVING     FLOW-JA-FACE ON UNIT   1042 AT TIME STEP      8, STRESS PERIOD      2
 UBDSV06 SAVING       DATA-SPDIS IN MODEL GWF              PACKAGE NPF             CONNECTED TO MODEL GWF              PACKAGE NPF              ON UNIT   1042 AT TIME STEP      8, STRESS PERIOD      2
 UBDSV06 SAVING              WEL IN MODEL GWF              PACKAGE GWF             CONNECTED TO MODEL GWF              PACKAGE WEL-1            ON UNIT   1042 AT TIME STEP      8, STRESS PERIOD      2
 UBDSV06 SAVING              API IN MODEL GWF              PACKAGE GWF             CONNECTED TO MODEL GWF              PACKAGE MAR              ON UNIT   1042 AT TIME STEP      8, STRESS PERIOD      2
 UBDSV06 SAVING              CHD IN MODEL GWF              PACKAGE GWF             CONNECTED TO MODEL GWF              PACKAGE CHD_0            ON UNIT   1042 AT TIME STEP      8, STRESS PERIOD      2

    CALCULATED INTERCELL FLOW FOR PERIOD 2 STEP 8
(1,1,1): (1,1,2) 4.841648E-06 (1,2,1) 6.118190E-06
(1,1,2): (1,1,1) -4.841648E-06 (1,1,3) 2.545860E-05 (1,2,2) 3.859984E-05
(1,1,3): (1,1,2) -2.545860E-05 (1,1,4) 9.657294E-05 (1,2,3) 2.265957E-04
(1,1,4): (1,1,3) -9.657294E-05 (1,1,5) 2.123659E-04 (1,2,4) 1.020521E-03
(1,1,5): (1,1,4) -2.123659E-04 (1,1,6) 6.897837E-05 (1,2,5) 2.973198E-03
(1,1,6): (1,1,5) -6.897837E-05 (1,1,7) -6.897714E-05 (1,2,6) 3.550076E-03
(1,1,7): (1,1,6) 6.897714E-05 (1,1,8) -2.123534E-04 (1,2,7) 2.973206E-03
(1,1,8): (1,1,7) 2.123534E-04 (1,1,9) -9.646809E-05 (1,2,8) 1.020595E-03
(1,1,9): (1,1,8) 9.646809E-05 (1,1,10) -2.468868E-05 (1,2,9) 2.272596E-04
(1,1,10): (1,1,9) 2.468868E-05 (1,2,10) 4.397217E-05
(1,2,1): (1,1,1) -6.118190E-06 (1,2,2) 3.732330E-05 (1,3,1) 4.075297E-05
(1,2,2): (1,1,2) -3.859984E-05 (1,2,1) -3.732330E-05 (1,2,3) 2.134544E-04 (1,3,2) 2.804138E-04
(1,2,3): (1,1,3) -2.265957E-04 (1,2,2) -2.134544E-04 (1,2,4) 8.904973E-04 (1,3,3) 1.798215E-03
(1,2,4): (1,1,4) -1.020521E-03 (1,2,3) -8.904973E-04 (1,2,5) 2.165027E-03 (1,3,4) 8.923809E-03
(1,2,5): (1,1,5) -2.973198E-03 (1,2,4) -2.165027E-03 (1,2,6) 6.458394E-04 (1,3,5) 2.868714E-02
(1,2,6): (1,1,6) -3.550076E-03 (1,2,5) -6.458394E-04 (1,2,7) -6.458307E-04 (1,3,6) 3.389150E-02
(1,2,7): (1,1,7) -2.973206E-03 (1,2,6) 6.458307E-04 (1,2,8) -2.164949E-03 (1,3,7) 2.868718E-02
(1,2,8): (1,1,8) -1.020595E-03 (1,2,7) 2.164949E-03 (1,2,9) -8.898022E-04 (1,3,8) 8.924241E-03
(1,2,9): (1,1,9) -2.272596E-04 (1,2,8) 8.898022E-04 (1,2,10) -2.079761E-04 (1,3,9) 1.802367E-03
(1,2,10): (1,1,10) -4.397217E-05 (1,2,9) 2.079761E-04 (1,3,10) 3.165399E-04
(1,3,1): (1,2,1) -4.075297E-05 (1,3,2) 2.769842E-04 (1,4,1) 2.157638E-04
(1,3,2): (1,2,2) -2.804138E-04 (1,3,1) -2.769842E-04 (1,3,3) 1.731254E-03 (1,4,2) 1.643340E-03
(1,3,3): (1,2,3) -1.798215E-03 (1,3,2) -1.731254E-03 (1,3,4) 8.016026E-03 (1,4,3) 1.172818E-02
(1,3,4): (1,2,4) -8.923809E-03 (1,3,3) -8.016026E-03 (1,3,5) 2.192702E-02 (1,4,4) 6.584306E-02
(1,3,5): (1,2,5) -2.868714E-02 (1,3,4) -2.192702E-02 (1,3,6) 5.848749E-03 (1,4,5) 0.242890
(1,3,6): (1,2,6) -3.389150E-02 (1,3,5) -5.848749E-03 (1,3,7) -5.848699E-03 (1,4,6) 0.281818
(1,3,7): (1,2,7) -2.868718E-02 (1,3,6) 5.848699E-03 (1,3,8) -2.192655E-02 (1,4,7) 0.242891
(1,3,8): (1,2,8) -8.924241E-03 (1,3,7) 2.192655E-02 (1,3,9) -8.011610E-03 (1,4,8) 6.584503E-02
(1,3,9): (1,2,9) -1.802367E-03 (1,3,8) 8.011610E-03 (1,3,10) -1.693802E-03 (1,4,9) 1.174861E-02
(1,3,10): (1,2,10) -3.165399E-04 (1,3,9) 1.693802E-03 (1,4,10) 1.836549E-03
(1,4,1): (1,3,1) -2.157638E-04 (1,4,2) 1.704562E-03 (1,5,1) 8.115266E-04
(1,4,2): (1,3,2) -1.643340E-03 (1,4,1) -1.704562E-03 (1,4,3) 1.181611E-02 (1,5,2) 6.979713E-03
(1,4,3): (1,3,3) -1.172818E-02 (1,4,2) -1.181611E-02 (1,4,4) 6.212889E-02 (1,5,3) 5.700270E-02
(1,4,4): (1,3,4) -6.584306E-02 (1,4,3) -6.212889E-02 (1,4,5) 0.198897 (1,5,4) 0.378511
(1,4,5): (1,3,5) -0.242890 (1,4,4) -0.198897 (1,4,6) 4.468446E-02 (1,5,5) 1.73734
(1,4,6): (1,3,6) -0.281818 (1,4,5) -4.468446E-02 (1,4,7) -4.468423E-02 (1,5,6) 1.94883
(1,4,7): (1,3,7) -0.242891 (1,4,6) 4.468423E-02 (1,4,8) -0.198895 (1,5,7) 1.73734
(1,4,8): (1,3,8) -6.584503E-02 (1,4,7) 0.198895 (1,4,9) -6.210601E-02 (1,5,8) 0.378517
(1,4,9): (1,3,9) -1.174861E-02 (1,4,8) 6.210601E-02 (1,4,10) -1.160585E-02 (1,5,9) 5.707316E-02
(1,4,10): (1,3,10) -1.836549E-03 (1,4,9) 1.160585E-02 (1,5,10) 7.714256E-03
(1,5,1): (1,4,1) -8.115266E-04 (1,5,2) 7.872803E-03 (1,6,1) 1.461149E-03
(1,5,2): (1,4,2) -6.979713E-03 (1,5,1) -7.872803E-03 (1,5,3) 6.184151E-02 (1,6,2) 1.488607E-02
(1,5,3): (1,4,3) -5.700270E-02 (1,5,2) -6.184151E-02 (1,5,4) 0.383653 (1,6,3) 0.148524
(1,5,4): (1,4,4) -0.378511 (1,5,3) -0.383653 (1,5,5) 1.55535 (1,6,4) 1.30230
(1,5,5): (1,4,5) -1.73734 (1,5,4) -1.55535 (1,5,6) 0.252814 (1,6,5) 9.61007
(1,5,6): (1,4,6) -1.94883 (1,5,5) -0.252814 (1,5,7) -0.252813 (1,6,6) 9.96289
(1,5,7): (1,4,7) -1.73734 (1,5,6) 0.252813 (1,5,8) -1.55535 (1,6,7) 9.61007
(1,5,8): (1,4,8) -0.378517 (1,5,7) 1.55535 (1,5,9) -0.383566 (1,6,8) 1.30231
(1,5,9): (1,4,9) -5.707316E-02 (1,5,8) 0.383566 (1,5,10) -6.096668E-02 (1,6,9) 0.148637
(1,5,10): (1,4,10) -7.714256E-03 (1,5,9) 6.096668E-02 (1,6,10) 1.622580E-02
(1,6,1): (1,5,1) -1.461149E-03 (1,6,2) 2.129859E-02 (1,7,1) -1.927218E-03
(1,6,2): (1,5,2) -1.488607E-02 (1,6,1) -2.129859E-02 (1,6,3) 0.195542 (1,7,2) -1.930967E-02
(1,6,3): (1,5,3) -0.148524 (1,6,2) -0.195542 (1,6,4) 1.54007 (1,7,3) -0.189330
(1,6,4): (1,5,4) -1.30230 (1,6,3) -1.54007 (1,6,5) 9.88127 (1,7,4) -1.62846
(1,6,5): (1,5,5) -9.61007 (1,6,4) -9.88127 (1,6,6) 0.582316 (1,7,5) -11.8108
(1,6,6): (1,5,6) -9.96289 (1,6,5) -0.582316 (1,6,7) -0.582314 (1,7,6) -19.1223
(1,6,7): (1,5,7) -9.61007 (1,6,6) 0.582314 (1,6,8) -9.88125 (1,7,7) -11.8108
(1,6,8): (1,5,8) -1.30231 (1,6,7) 9.88125 (1,6,9) -1.53988 (1,7,8) -1.62848
(1,6,9): (1,5,9) -0.148637 (1,6,8) 1.53988 (1,6,10) -0.193437 (1,7,9) -0.189481
(1,6,10): (1,5,10) -1.622580E-02 (1,6,9) 0.193437 (1,7,10) -2.107452E-02
(1,7,1): (1,6,1) 1.927218E-03 (1,7,2) 3.915796E-03 (1,8,1) -1.288754E-03
(1,7,2): (1,6,2) 1.930967E-02 (1,7,1) -3.915796E-03 (1,7,3) 2.551103E-02 (1,8,2) -1.273105E-02
(1,7,3): (1,6,3) 0.189330 (1,7,2) -2.551103E-02 (1,7,4) 0.102167 (1,8,3) -0.123824
(1,7,4): (1,6,4) 1.62846 (1,7,3) -0.102167 (1,7,5) -0.143047 (1,8,4) -1.06679
(1,7,5): (1,6,5) 11.8108 (1,7,4) 0.143047 (1,7,6) -6.00131 (1,8,5) -7.87390
(1,7,6): (1,6,6) 19.1223 (1,7,5) 6.00131 (1,7,7) 6.00131 (1,8,6) -47.6380
(1,7,7): (1,6,7) 11.8108 (1,7,6) -6.00131 (1,7,8) 0.143052 (1,8,7) -7.87390
(1,7,8): (1,6,8) 1.62848 (1,7,7) -0.143052 (1,7,9) -0.102115 (1,8,8) -1.06680
(1,7,9): (1,6,9) 0.189481 (1,7,8) 0.102115 (1,7,10) -2.502383E-02 (1,8,9) -0.123926
(1,7,10): (1,6,10) 2.107452E-02 (1,7,9) 2.502383E-02 (1,8,10) -1.390933E-02
(1,8,1): (1,7,1) 1.288754E-03 (1,8,2) -7.526062E-03 (1,9,1) 1.210744E-03
(1,8,2): (1,7,2) 1.273105E-02 (1,8,1) 7.526062E-03 (1,8,3) -8.554611E-02 (1,9,2) 1.207650E-02
(1,8,3): (1,7,3) 0.123824 (1,8,2) 8.554611E-02 (1,8,4) -0.838777 (1,9,3) 0.118607
(1,8,4): (1,7,4) 1.06679 (1,8,3) 0.838777 (1,8,5) -6.88734 (1,9,4) 1.03287
(1,8,5): (1,7,5) 7.87390 (1,8,4) 6.88734 (1,8,6) -44.9637 (1,9,5) 7.71425
(1,8,6): (1,7,6) 47.6380 (1,8,5) 44.9637 (1,8,7) 44.9637 (1,9,6) 47.3864
(1,8,7): (1,7,7) 7.87390 (1,8,6) -44.9637 (1,8,8) 6.88734 (1,9,7) 7.71425
(1,8,8): (1,7,8) 1.06680 (1,8,7) -6.88734 (1,8,9) 0.838736 (1,9,8) 1.03288
(1,8,9): (1,7,9) 0.123926 (1,8,8) -0.838736 (1,8,10) 8.495625E-02 (1,9,9) 0.118702
(1,8,10): (1,7,10) 1.390933E-02 (1,8,9) -8.495625E-02 (1,9,10) 1.318431E-02
(1,9,1): (1,8,1) -1.210744E-03 (1,9,2) 3.339315E-03 (1,10,1) 1.806960E-03
(1,9,2): (1,8,2) -1.207650E-02 (1,9,1) -3.339315E-03 (1,9,3) 2.095382E-02 (1,10,2) 1.810160E-02
(1,9,3): (1,8,3) -0.118607 (1,9,2) -2.095382E-02 (1,9,4) 7.378800E-02 (1,10,3) 0.177404
(1,9,4): (1,8,4) -1.03287 (1,9,3) -7.378800E-02 (1,9,5) -0.257799 (1,10,4) 1.52486
(1,9,5): (1,8,5) -7.71425 (1,9,4) 0.257799 (1,9,6) -6.01829 (1,10,5) 11.0536
(1,9,6): (1,8,6) -47.3864 (1,9,5) 6.01829 (1,9,7) 6.01829 (1,10,6) 18.2273
(1,9,7): (1,8,7) -7.71425 (1,9,6) -6.01829 (1,9,8) 0.257804 (1,10,7) 11.0536
(1,9,8): (1,8,8) -1.03288 (1,9,7) -0.257804 (1,9,9) -7.374184E-02 (1,10,8) 1.52487
(1,9,9): (1,8,9) -0.118702 (1,9,8) 7.374184E-02 (1,9,10) -2.053020E-02 (1,10,9) 0.177545
(1,9,10): (1,8,10) -1.318431E-02 (1,9,9) 2.053020E-02 (1,10,10) 1.975631E-02
(1,10,1): (1,9,1) -1.806960E-03 (1,10,2) 1.963421E-02 (1,11,1) -1.344657E-03
(1,10,2): (1,9,2) -1.810160E-02 (1,10,1) -1.963421E-02 (1,10,3) 0.180261 (1,11,2) -1.370531E-02
(1,10,3): (1,9,3) -0.177404 (1,10,2) -0.180261 (1,10,4) 1.41987 (1,11,3) -0.136798
(1,10,4): (1,9,4) -1.52486 (1,10,3) -1.41987 (1,10,5) 9.12115 (1,11,4) -1.20021
(1,10,5): (1,9,5) -11.0536 (1,10,4) -9.12115 (1,10,6) 0.479204 (1,11,5) -8.87031
(1,10,6): (1,9,6) -18.2273 (1,10,5) -0.479204 (1,10,7) -0.479203 (1,11,6) -9.13927
(1,10,7): (1,9,7) -11.0536 (1,10,6) 0.479203 (1,10,8) -9.12113 (1,11,7) -8.87031
(1,10,8): (1,9,8) -1.52487 (1,10,7) 9.12113 (1,10,9) -1.41970 (1,11,8) -1.20022
(1,10,9): (1,9,9) -0.177545 (1,10,8) 1.41970 (1,10,10) -0.178320 (1,11,9) -0.136901
(1,10,10): (1,9,10) -1.975631E-02 (1,10,9) 0.178320 (1,11,10) -1.493825E-02
(1,11,1): (1,10,1) 1.344657E-03 (1,11,2) 7.272818E-03 (1,12,1) -7.496056E-04
(1,11,2): (1,10,2) 1.370531E-02 (1,11,1) -7.272818E-03 (1,11,3) 5.711513E-02 (1,12,2) -6.446474E-03
(1,11,3): (1,10,3) 0.136798 (1,11,2) -5.711513E-02 (1,11,4) 0.354205 (1,12,3) -5.263798E-02
(1,11,4): (1,10,4) 1.20021 (1,11,3) -0.354205 (1,11,5) 1.43533 (1,12,4) -0.349426
(1,11,5): (1,10,5) 8.87031 (1,11,4) -1.43533 (1,11,6) 0.226881 (1,12,5) -1.60314
(1,11,6): (1,10,6) 9.13927 (1,11,5) -0.226881 (1,11,7) -0.226880 (1,12,6) -1.79214
(1,11,7): (1,10,7) 8.87031 (1,11,6) 0.226880 (1,11,8) -1.43532 (1,12,7) -1.60314
(1,11,8): (1,10,8) 1.20022 (1,11,7) 1.43532 (1,11,9) -0.354124 (1,12,8) -0.349431
(1,11,9): (1,10,9) 0.136901 (1,11,8) 0.354124 (1,11,10) -5.630688E-02 (1,12,9) -5.270306E-02
(1,11,10): (1,10,10) 1.493825E-02 (1,11,9) 5.630688E-02 (1,12,10) -7.124959E-03
(1,12,1): (1,11,1) 7.496056E-04 (1,12,2) 1.575903E-03 (1,13,1) -1.994977E-04
(1,12,2): (1,11,2) 6.446474E-03 (1,12,1) -1.575903E-03 (1,12,3) 1.092155E-02 (1,13,2) -1.519209E-03
(1,12,3): (1,11,3) 5.263798E-02 (1,12,2) -1.092155E-02 (1,12,4) 5.740282E-02 (1,13,3) -1.083981E-02
(1,12,4): (1,11,4) 0.349426 (1,12,3) -5.740282E-02 (1,12,5) 0.183635 (1,13,4) -6.083430E-02
(1,12,5): (1,11,5) 1.60314 (1,12,4) -0.183635 (1,12,6) 4.066341E-02 (1,13,5) -0.224280
(1,12,6): (1,11,6) 1.79214 (1,12,5) -4.066341E-02 (1,12,7) -4.066320E-02 (1,13,6) -0.259665
(1,12,7): (1,11,7) 1.60314 (1,12,6) 4.066320E-02 (1,12,8) -0.183633 (1,13,7) -0.224280
(1,12,8): (1,11,8) 0.349431 (1,12,7) 0.183633 (1,12,9) -5.738166E-02 (1,13,8) -6.083612E-02
(1,12,9): (1,11,9) 5.270306E-02 (1,12,8) 5.738166E-02 (1,12,10) -1.072714E-02 (1,13,9) -1.085870E-02
(1,12,10): (1,11,10) 7.124959E-03 (1,12,9) 1.072714E-02 (1,13,10) -1.697848E-03
(1,13,1): (1,12,1) 1.994977E-04 (1,13,2) 2.561910E-04 (1,14,1) -3.769940E-05
(1,13,2): (1,12,2) 1.519209E-03 (1,13,1) -2.561910E-04 (1,13,3) 1.600944E-03 (1,14,2) -2.593613E-04
(1,13,3): (1,12,3) 1.083981E-02 (1,13,2) -1.600944E-03 (1,13,4) 7.410049E-03 (1,14,3) -1.662857E-03
(1,13,4): (1,12,4) 6.083430E-02 (1,13,3) -7.410049E-03 (1,13,5) 2.025561E-02 (1,14,4) -8.249477E-03
(1,13,5): (1,12,5) 0.224280 (1,13,4) -2.025561E-02 (1,13,6) 5.354588E-03 (1,14,5) -2.650533E-02
(1,13,6): (1,12,6) 0.259665 (1,13,5) -5.354588E-03 (1,13,7) -5.354541E-03 (1,14,6) -3.126794E-02
(1,13,7): (1,12,7) 0.224280 (1,13,6) 5.354541E-03 (1,13,8) -2.025517E-02 (1,14,7) -2.650537E-02
(1,13,8): (1,12,8) 6.083612E-02 (1,13,7) 2.025517E-02 (1,13,9) -7.405963E-03 (1,14,8) -8.249876E-03
(1,13,9): (1,12,9) 1.085870E-02 (1,13,8) 7.405963E-03 (1,13,10) -1.566298E-03 (1,14,9) -1.666698E-03
(1,13,10): (1,12,10) 1.697848E-03 (1,13,9) 1.566298E-03 (1,14,10) -2.927795E-04
(1,14,1): (1,13,1) 3.769940E-05 (1,14,2) 3.452908E-05 (1,15,1) -5.661533E-06
(1,14,2): (1,13,2) 2.593613E-04 (1,14,1) -3.452908E-05 (1,14,3) 1.974499E-04 (1,15,2) -3.571338E-05
(1,14,3): (1,13,3) 1.662857E-03 (1,14,2) -1.974499E-04 (1,14,4) 8.234837E-04 (1,15,3) -2.096108E-04
(1,14,4): (1,13,4) 8.249477E-03 (1,14,3) -8.234837E-04 (1,14,5) 2.000892E-03 (1,15,4) -9.437660E-04
(1,14,5): (1,13,5) 2.650533E-02 (1,14,4) -2.000892E-03 (1,14,6) 5.932187E-04 (1,15,5) -2.748334E-03
(1,14,6): (1,13,6) 3.126794E-02 (1,14,5) -5.932187E-04 (1,14,7) -5.932093E-04 (1,15,6) -3.278074E-03
(1,14,7): (1,13,7) 2.650537E-02 (1,14,6) 5.932093E-04 (1,14,8) -2.000818E-03 (1,15,7) -2.748341E-03
(1,14,8): (1,13,8) 8.249876E-03 (1,14,7) 2.000818E-03 (1,14,9) -8.228396E-04 (1,15,8) -9.438339E-04
(1,14,9): (1,13,9) 1.666698E-03 (1,14,8) 8.228396E-04 (1,14,10) -1.923807E-04 (1,15,9) -2.102249E-04
(1,14,10): (1,13,10) 2.927795E-04 (1,14,9) 1.923807E-04 (1,15,10) -4.068445E-05
(1,15,1): (1,14,1) 5.661533E-06 (1,15,2) 4.477229E-06
(1,15,2): (1,14,2) 3.571338E-05 (1,15,1) -4.477229E-06 (1,15,3) 2.355244E-05
(1,15,3): (1,14,3) 2.096108E-04 (1,15,2) -2.355244E-05 (1,15,4) 8.932947E-05
(1,15,4): (1,14,4) 9.437660E-04 (1,15,3) -8.932947E-05 (1,15,5) 1.963374E-04
(1,15,5): (1,14,5) 2.748334E-03 (1,15,4) -1.963374E-04 (1,15,6) 6.349324E-05
(1,15,6): (1,14,6) 3.278074E-03 (1,15,5) -6.349324E-05 (1,15,7) -6.349055E-05
(1,15,7): (1,14,7) 2.748341E-03 (1,15,6) 6.349055E-05 (1,15,8) -1.963245E-04
(1,15,8): (1,14,8) 9.438339E-04 (1,15,7) 1.963245E-04 (1,15,9) -8.923150E-05
(1,15,9): (1,14,9) 2.102249E-04 (1,15,8) 8.923150E-05 (1,15,10) -2.284027E-05
(1,15,10): (1,14,10) 4.068445E-05 (1,15,9) 2.284027E-05

 WEL PACKAGE (WEL-1) FLOW RATES   PERIOD      2   STEP        8
 ----------------------------------------------------------------------------------------
   NUMBER   CELLID                    RATE       NAME                                    
 ----------------------------------------------------------------------------------------
     1      (1,8,6)              -270.00000      WEL                                     
 ----------------------------------------------------------------------------------------




 API PACKAGE (MAR) FLOW RATES   PERIOD      2   STEP        8
 -----------------------------------------------
   NUMBER   CELLID                    RATE      
 -----------------------------------------------
     1      (1,6,5)               46.666667     
     2      (1,6,6)               46.666667     
     3      (1,6,7)               46.666667     
     4      (1,10,5)              43.333333     
     5      (1,10,6)              43.333333     
     6      (1,10,7)              43.333333     
 -----------------------------------------------



1
  HEAD IN LAYER   1 AT END OF TIME STEP   8 IN STRESS PERIOD    2
  ---------------------------------------------------------------------------

            1           2           3           4           5           6           7           8           9          10
 ........................................................................................................................
   1   1.0258E-07  5.8674E-07  3.1326E-06  1.2790E-05  3.4026E-05  4.0924E-05  3.4027E-05  1.2791E-05  3.1445E-06  6.7559E-07
   2   7.1440E-07  4.4467E-06  2.5792E-05  1.1484E-04  3.3134E-04  3.9592E-04  3.3134E-04  1.1485E-04  2.5870E-05  5.0728E-06
   3   4.7897E-06  3.2488E-05  2.0561E-04  1.0071E-03  3.1991E-03  3.7838E-03  3.1991E-03  1.0072E-03  2.0610E-04  3.6727E-05
   4   2.6366E-05  1.9682E-04  1.3783E-03  7.5864E-03  2.7422E-02  3.1876E-02  2.7422E-02  7.5867E-03  1.3808E-03  2.2038E-04
   5   1.0752E-04  8.9473E-04  7.0745E-03  4.5267E-02  0.1978      0.2225      0.1978      4.5268E-02  7.0841E-03  9.9173E-04
   6   2.5363E-04  2.3830E-03  2.1894E-02  0.1733       1.066       1.119       1.066      0.1733      2.1915E-02  2.6139E-03
   7   6.0912E-05  4.5247E-04  3.0028E-03  1.3206E-02 -1.0797E-03 -0.6013     -1.0797E-03  1.3207E-02  3.0086E-03  5.0698E-04
   8  -6.7963E-05 -8.2057E-04 -9.3759E-03 -9.3332E-02 -0.7886      -5.670     -0.7886     -9.3333E-02 -9.3803E-03 -8.8388E-04
   9   5.3111E-05  3.8703E-04  2.4819E-03  9.8534E-03 -1.5901E-02 -0.6187     -1.5901E-02  9.8539E-03  2.4870E-03  4.3449E-04
  10   2.3380E-04  2.1968E-03  2.0187E-02  0.1599      0.9899       1.033      0.9899      0.1599      2.0206E-02  2.4096E-03
  11   9.9340E-05  8.2656E-04  6.5343E-03  4.1807E-02  0.1828      0.2050      0.1828      4.1808E-02  6.5432E-03  9.1618E-04
  12   2.4381E-05  1.8197E-04  1.2740E-03  7.0102E-03  2.5327E-02  2.9382E-02  2.5327E-02  7.0105E-03  1.2763E-03  2.0375E-04
  13   4.4309E-06  3.0050E-05  1.9014E-04  9.3108E-04  2.9560E-03  3.4913E-03  2.9560E-03  9.3113E-04  1.9060E-04  3.3971E-05
  14   6.6094E-07  4.1138E-06  2.3859E-05  1.0621E-04  3.0629E-04  3.6561E-04  3.0629E-04  1.0621E-04  2.3932E-05  4.6935E-06
  15   9.4783E-08  5.4251E-07  2.8977E-06  1.1831E-05  3.1464E-05  3.7814E-05  3.1465E-05  1.1832E-05  2.9091E-06  6.2508E-07

 HEAD WILL BE SAVED ON UNIT 1043 AT END OF TIME STEP    8, STRESS PERIOD    2


  VOLUME BUDGET FOR ENTIRE MODEL AT END OF TIME STEP    8, STRESS PERIOD   2
  ---------------------------------------------------------------------------------------------------

     CUMULATIVE VOLUME      L**3       RATES FOR THIS TIME STEP      L**3/T          PACKAGE NAME    
     ------------------                 ------------------------                     ----------------

           IN:                                      IN:
           ---                                      ---
              STO-SS =           7.0671                STO-SS =       6.4821E-02     STORAGE                          
              STO-SY =       17549.4579                STO-SY =         181.3164     STORAGE                          
                 WEL =           0.0000                   WEL =           0.0000     WEL-1                            
                 API =       21600.0000                   API =         270.0000     MAR                              
                 CHD =       2.8247E-08                   CHD =           0.0000     CHD_0                            

            TOTAL IN =       39156.5251              TOTAL IN =         451.3812

          OUT:                                     OUT:
          ----                                     ----
              STO-SS =           9.1195                STO-SS =       9.5868E-02     STORAGE                          
              STO-SY =       17547.4056                STO-SY =         181.2853     STORAGE                          
                 WEL =       21600.0000                   WEL =         270.0000     WEL-1                            
                 API =           0.0000                   API =           0.0000     MAR                              
                 CHD =       3.0388E-08                   CHD =           0.0000     CHD_0                            

           TOTAL OUT =       39156.5251             TOTAL OUT =         451.3812

            IN - OUT =      -4.2637E-08              IN - OUT =      -2.8535E-10

 PERCENT DISCREPANCY =          -0.00     PERCENT DISCREPANCY =          -0.00




         TIME SUMMARY AT END OF TIME STEP    8 IN STRESS PERIOD    2
                    SECONDS     MINUTES      HOURS       DAYS        YEARS
                    -----------------------------------------------------------
   TIME STEP LENGTH 8.64000E+05  14400.      240.00      10.000     2.73785E-02
 STRESS PERIOD TIME 6.91200E+06 1.15200E+05  1920.0      80.000     0.21903    
         TOTAL TIME 6.99840E+06 1.16640E+05  1944.0      81.000     0.22177    


end timestep


start timestep kper="2" kstp="9" mode="normal"

 UBDSV1 SAVING           STO-SS ON UNIT   1042 AT TIME STEP      9, STRESS PERIOD      2
 UBDSV1 SAVING           STO-SY ON UNIT   1042 AT TIME STEP      9, STRESS PERIOD      2
 UBDSV1 SAVING     FLOW-JA-FACE ON UNIT   1042 AT TIME STEP      9, STRESS PERIOD      2
 UBDSV06 SAVING       DATA-SPDIS IN MODEL GWF              PACKAGE NPF             CONNECTED TO MODEL GWF              PACKAGE NPF              ON UNIT   1042 AT TIME STEP      9, STRESS PERIOD      2
 UBDSV06 SAVING              WEL IN MODEL GWF              PACKAGE GWF             CONNECTED TO MODEL GWF              PACKAGE WEL-1            ON UNIT   1042 AT TIME STEP      9, STRESS PERIOD      2
 UBDSV06 SAVING              API IN MODEL GWF              PACKAGE GWF             CONNECTED TO MODEL GWF              PACKAGE MAR              ON UNIT   1042 AT TIME STEP      9, STRESS PERIOD      2
 UBDSV06 SAVING              CHD IN MODEL GWF              PACKAGE GWF             CONNECTED TO MODEL GWF              PACKAGE CHD_0            ON UNIT   1042 AT TIME STEP      9, STRESS PERIOD      2

    CALCULATED INTERCELL FLOW FOR PERIOD 2 STEP 9
(1,1,1): (1,1,2) 8.978020E-06 (1,2,1) 1.134589E-05
(1,1,2): (1,1,1) -8.978020E-06 (1,1,3) 4.473087E-05 (1,2,2) 6.733993E-05
(1,1,3): (1,1,2) -4.473087E-05 (1,1,4) 1.601724E-04 (1,2,3) 3.732894E-04
(1,1,4): (1,1,3) -1.601724E-04 (1,1,5) 3.332700E-04 (1,2,4) 1.588255E-03
(1,1,5): (1,1,4) -3.332700E-04 (1,1,6) 1.120425E-04 (1,2,5) 4.401853E-03
(1,1,6): (1,1,5) -1.120425E-04 (1,1,7) -1.120392E-04 (1,2,6) 5.266412E-03
(1,1,7): (1,1,6) 1.120392E-04 (1,1,8) -3.332426E-04 (1,2,7) 4.401869E-03
(1,1,8): (1,1,7) 3.332426E-04 (1,1,9) -1.599556E-04 (1,2,8) 1.588406E-03
(1,1,9): (1,1,8) 1.599556E-04 (1,1,10) -4.322247E-05 (1,2,9) 3.745788E-04
(1,1,10): (1,1,9) 4.322247E-05 (1,2,10) 7.722812E-05
(1,2,1): (1,1,1) -1.134589E-05 (1,2,2) 6.497207E-05 (1,3,1) 7.130402E-05
(1,2,2): (1,1,2) -6.733993E-05 (1,2,1) -6.497207E-05 (1,2,3) 3.506802E-04 (1,3,2) 4.598137E-04
(1,2,3): (1,1,3) -3.732894E-04 (1,2,2) -3.506802E-04 (1,2,4) 1.375136E-03 (1,3,3) 2.772888E-03
(1,2,4): (1,1,4) -1.588255E-03 (1,2,3) -1.375136E-03 (1,2,5) 3.146833E-03 (1,3,4) 1.293794E-02
(1,2,5): (1,1,5) -4.401853E-03 (1,2,4) -3.146833E-03 (1,2,6) 9.765642E-04 (1,3,5) 3.933777E-02
(1,2,6): (1,1,6) -5.266412E-03 (1,2,5) -9.765642E-04 (1,2,7) -9.765450E-04 (1,3,6) 4.660233E-02
(1,2,7): (1,1,7) -4.401869E-03 (1,2,6) 9.765450E-04 (1,2,8) -3.146670E-03 (1,3,7) 3.933785E-02
(1,2,8): (1,1,8) -1.588406E-03 (1,2,7) 3.146670E-03 (1,2,9) -1.373780E-03 (1,3,8) 1.293878E-02
(1,2,9): (1,1,9) -3.745788E-04 (1,2,8) 1.373780E-03 (1,2,10) -3.405731E-04 (1,3,9) 2.780524E-03
(1,2,10): (1,1,10) -7.722812E-05 (1,2,9) 3.405731E-04 (1,3,10) 5.225569E-04
(1,3,1): (1,2,1) -7.130402E-05 (1,3,2) 4.534817E-04 (1,4,1) 3.540787E-04
(1,3,2): (1,2,2) -4.598137E-04 (1,3,1) -4.534817E-04 (1,3,3) 2.663752E-03 (1,4,2) 2.517487E-03
(1,3,3): (1,2,3) -2.772888E-03 (1,3,2) -2.663752E-03 (1,3,4) 1.154005E-02 (1,4,3) 1.682284E-02
(1,3,4): (1,2,4) -1.293794E-02 (1,3,3) -1.154005E-02 (1,3,5) 2.954407E-02 (1,4,4) 8.835804E-02
(1,3,5): (1,2,5) -3.933777E-02 (1,3,4) -2.954407E-02 (1,3,6) 8.238346E-03 (1,4,5) 0.306364
(1,3,6): (1,2,6) -4.660233E-02 (1,3,5) -8.238346E-03 (1,3,7) -8.238242E-03 (1,4,6) 0.356573
(1,3,7): (1,2,7) -3.933785E-02 (1,3,6) 8.238242E-03 (1,3,8) -2.954316E-02 (1,4,7) 0.306364
(1,3,8): (1,2,8) -1.293878E-02 (1,3,7) 2.954316E-02 (1,3,9) -1.153189E-02 (1,4,8) 8.836166E-02
(1,3,9): (1,2,9) -2.780524E-03 (1,3,8) 1.153189E-02 (1,3,10) -2.598536E-03 (1,4,9) 1.685821E-02
(1,3,10): (1,2,10) -5.225569E-04 (1,3,9) 2.598536E-03 (1,4,10) 2.832286E-03
(1,4,1): (1,3,1) -3.540787E-04 (1,4,2) 2.616893E-03 (1,5,1) 1.241106E-03
(1,4,2): (1,3,2) -2.517487E-03 (1,4,1) -2.616893E-03 (1,4,3) 1.696912E-02 (1,5,2) 9.924008E-03
(1,4,3): (1,3,3) -1.682284E-02 (1,4,2) -1.696912E-02 (1,4,4) 8.307147E-02 (1,5,3) 7.555585E-02
(1,4,4): (1,3,4) -8.835804E-02 (1,4,3) -8.307147E-02 (1,4,5) 0.247422 (1,5,4) 0.467136
(1,4,5): (1,3,5) -0.306364 (1,4,4) -0.247422 (1,4,6) 5.829941E-02 (1,5,5) 2.00325
(1,4,6): (1,3,6) -0.356573 (1,4,5) -5.829941E-02 (1,4,7) -5.829896E-02 (1,5,6) 2.25148
(1,4,7): (1,3,7) -0.306364 (1,4,6) 5.829896E-02 (1,4,8) -0.247418 (1,5,7) 2.00325
(1,4,8): (1,3,8) -8.836166E-02 (1,4,7) 0.247418 (1,4,9) -8.303155E-02 (1,5,8) 0.467147
(1,4,9): (1,3,9) -1.685821E-02 (1,4,8) 8.303155E-02 (1,4,10) -1.662443E-02 (1,5,9) 7.567007E-02
(1,4,10): (1,3,10) -2.832286E-03 (1,4,9) 1.662443E-02 (1,5,10) 1.103970E-02
(1,5,1): (1,4,1) -1.241106E-03 (1,5,2) 1.129991E-02 (1,6,1) 2.040758E-03
(1,5,2): (1,4,2) -9.924008E-03 (1,5,1) -1.129991E-02 (1,5,3) 8.260559E-02 (1,6,2) 1.927920E-02
(1,5,3): (1,4,3) -7.555585E-02 (1,5,2) -8.260559E-02 (1,5,4) 0.474681 (1,6,3) 0.178929
(1,5,4): (1,4,4) -0.467136 (1,5,3) -0.474681 (1,5,5) 1.78028 (1,6,4) 1.45945
(1,5,5): (1,4,5) -2.00325 (1,5,4) -1.78028 (1,5,6) 0.302035 (1,6,5) 10.0804
(1,5,6): (1,4,6) -2.25148 (1,5,5) -0.302035 (1,5,7) -0.302034 (1,6,6) 10.3962
(1,5,7): (1,4,7) -2.00325 (1,5,6) 0.302034 (1,5,8) -1.78027 (1,6,7) 10.0804
(1,5,8): (1,4,8) -0.467147 (1,5,7) 1.78027 (1,5,9) -0.474537 (1,6,8) 1.45947
(1,5,9): (1,4,9) -7.567007E-02 (1,5,8) 0.474537 (1,5,10) -8.125840E-02 (1,6,9) 0.179096
(1,5,10): (1,4,10) -1.103970E-02 (1,5,9) 8.125840E-02 (1,6,10) 2.113870E-02
(1,6,1): (1,5,1) -2.040758E-03 (1,6,2) 2.853995E-02 (1,7,1) -2.802413E-03
(1,6,2): (1,5,2) -1.927920E-02 (1,6,1) -2.853995E-02 (1,6,3) 0.242356 (1,7,2) -2.602285E-02
(1,6,3): (1,5,3) -0.178929 (1,6,2) -0.242356 (1,6,4) 1.75888 (1,7,3) -0.237038
(1,6,4): (1,5,4) -1.45945 (1,6,3) -1.75888 (1,6,5) 10.4248 (1,7,4) -1.89221
(1,6,5): (1,5,5) -10.0804 (1,6,4) -10.4248 (1,6,6) 0.596928 (1,7,5) -12.7967
(1,6,6): (1,5,6) -10.3962 (1,6,5) -0.596928 (1,6,7) -0.596925 (1,7,6) -20.9198
(1,6,7): (1,5,7) -10.0804 (1,6,6) 0.596925 (1,6,8) -10.4247 (1,7,7) -12.7967
(1,6,8): (1,5,8) -1.45947 (1,6,7) 10.4247 (1,6,9) -1.75858 (1,7,8) -1.89223
(1,6,9): (1,5,9) -0.179096 (1,6,8) 1.75858 (1,6,10) -0.239311 (1,7,9) -0.237271
(1,6,10): (1,5,10) -2.113870E-02 (1,6,9) 0.239311 (1,7,10) -2.857300E-02
(1,7,1): (1,6,1) 2.802413E-03 (1,7,2) 5.318923E-03 (1,8,1) -1.936116E-03
(1,7,2): (1,6,2) 2.602285E-02 (1,7,1) -5.318923E-03 (1,7,3) 3.132933E-02 (1,8,2) -1.777452E-02
(1,7,3): (1,6,3) 0.237038 (1,7,2) -3.132933E-02 (1,7,4) 0.105824 (1,8,3) -0.160932
(1,7,4): (1,6,4) 1.89221 (1,7,3) -0.105824 (1,7,5) -0.275263 (1,8,4) -1.28769
(1,7,5): (1,6,5) 12.7967 (1,7,4) 0.275263 (1,7,6) -6.66260 (1,8,5) -8.82751
(1,7,6): (1,6,6) 20.9198 (1,7,5) 6.66260 (1,7,7) 6.66260 (1,8,6) -50.0578
(1,7,7): (1,6,7) 12.7967 (1,7,6) -6.66260 (1,7,8) 0.275272 (1,8,7) -8.82751
(1,7,8): (1,6,8) 1.89223 (1,7,7) -0.275272 (1,7,9) -0.105740 (1,8,8) -1.28770
(1,7,9): (1,6,9) 0.237271 (1,7,8) 0.105740 (1,7,10) -3.060810E-02 (1,8,9) -0.161094
(1,7,10): (1,6,10) 2.857300E-02 (1,7,9) 3.060810E-02 (1,8,10) -1.953371E-02
(1,8,1): (1,7,1) 1.936116E-03 (1,8,2) -1.051862E-02 (1,9,1) 1.814198E-03
(1,8,2): (1,7,2) 1.777452E-02 (1,8,1) 1.051862E-02 (1,8,3) -0.111768 (1,9,2) 1.682423E-02
(1,8,3): (1,7,3) 0.160932 (1,8,2) 0.111768 (1,8,4) -1.01804 (1,9,3) 0.153878
(1,8,4): (1,7,4) 1.28769 (1,8,3) 1.01804 (1,8,5) -7.73872 (1,9,4) 1.24501
(1,8,5): (1,7,5) 8.82751 (1,8,4) 7.73872 (1,8,6) -46.9202 (1,9,5) 8.63929
(1,8,6): (1,7,6) 50.0578 (1,8,5) 46.9202 (1,8,7) 46.9202 (1,9,6) 49.7569
(1,8,7): (1,7,7) 8.82751 (1,8,6) -46.9202 (1,8,8) 7.73872 (1,9,7) 8.63929
(1,8,8): (1,7,8) 1.28770 (1,8,7) -7.73872 (1,8,9) 1.01798 (1,9,8) 1.24502
(1,8,9): (1,7,9) 0.161094 (1,8,8) -1.01798 (1,8,10) 0.110891 (1,9,9) 0.154029
(1,8,10): (1,7,10) 1.953371E-02 (1,8,9) -0.110891 (1,9,10) 1.847407E-02
(1,9,1): (1,8,1) -1.814198E-03 (1,9,2) 4.490675E-03 (1,10,1) 2.630188E-03
(1,9,2): (1,8,2) -1.682423E-02 (1,9,1) -4.490675E-03 (1,9,3) 2.523510E-02 (1,10,2) 2.442304E-02
(1,9,3): (1,8,3) -0.153878 (1,9,2) -2.523510E-02 (1,9,4) 7.068708E-02 (1,10,3) 0.222388
(1,9,4): (1,8,4) -1.24501 (1,9,3) -7.068708E-02 (1,9,5) -0.406603 (1,10,4) 1.77423
(1,9,5): (1,8,5) -8.63929 (1,9,4) 0.406603 (1,9,6) -6.68259 (1,10,5) 11.9928
(1,9,6): (1,8,6) -49.7569 (1,9,5) 6.68259 (1,9,7) 6.68259 (1,10,6) 19.9597
(1,9,7): (1,8,7) -8.63929 (1,9,6) -6.68259 (1,9,8) 0.406611 (1,10,7) 11.9928
(1,9,8): (1,8,8) -1.24502 (1,9,7) -0.406611 (1,9,9) -7.061363E-02 (1,10,8) 1.77425
(1,9,9): (1,8,9) -0.154029 (1,9,8) 7.061363E-02 (1,9,10) -2.461183E-02 (1,10,9) 0.222607
(1,9,10): (1,8,10) -1.847407E-02 (1,9,9) 2.461183E-02 (1,10,10) 2.681647E-02
(1,10,1): (1,9,1) -2.630188E-03 (1,10,2) 2.628393E-02 (1,11,1) -1.875237E-03
(1,10,2): (1,9,2) -2.442304E-02 (1,10,1) -2.628393E-02 (1,10,3) 0.223202 (1,11,2) -1.772510E-02
(1,10,3): (1,9,3) -0.222388 (1,10,2) -0.223202 (1,10,4) 1.62023 (1,11,3) -0.164595
(1,10,4): (1,9,4) -1.77423 (1,10,3) -1.62023 (1,10,5) 9.61795 (1,11,4) -1.34372
(1,10,5): (1,9,5) -11.9928 (1,10,4) -9.61795 (1,10,6) 0.481071 (1,11,5) -9.29931
(1,10,6): (1,9,6) -19.9597 (1,10,5) -0.481071 (1,10,7) -0.481068 (1,11,6) -9.52384
(1,10,7): (1,9,7) -11.9928 (1,10,6) 0.481068 (1,10,8) -9.61792 (1,11,7) -9.29931
(1,10,8): (1,9,8) -1.77425 (1,10,7) 9.61792 (1,10,9) -1.61996 (1,11,8) -1.34373
(1,10,9): (1,9,9) -0.222607 (1,10,8) 1.61996 (1,10,10) -0.220398 (1,11,9) -0.164749
(1,10,10): (1,9,10) -2.681647E-02 (1,10,9) 0.220398 (1,11,10) -1.943383E-02
(1,11,1): (1,10,1) 1.875237E-03 (1,11,2) 1.043271E-02 (1,12,1) -1.145692E-03
(1,11,2): (1,10,2) 1.772510E-02 (1,11,1) -1.043271E-02 (1,11,3) 7.624639E-02 (1,12,2) -9.159995E-03
(1,11,3): (1,10,3) 0.164595 (1,11,2) -7.624639E-02 (1,11,4) 0.437975 (1,12,3) -6.972539E-02
(1,11,4): (1,10,4) 1.34372 (1,11,3) -0.437975 (1,11,5) 1.64191 (1,12,4) -0.430963
(1,11,5): (1,10,5) 9.29931 (1,11,4) -1.64191 (1,11,6) 0.270344 (1,12,5) -1.84735
(1,11,6): (1,10,6) 9.52384 (1,11,5) -0.270344 (1,11,7) -0.270342 (1,12,6) -2.06843
(1,11,7): (1,10,7) 9.29931 (1,11,6) 0.270342 (1,11,8) -1.64190 (1,12,7) -1.84735
(1,11,8): (1,10,8) 1.34373 (1,11,7) 1.64190 (1,11,9) -0.437842 (1,12,8) -0.430973
(1,11,9): (1,10,9) 0.164749 (1,11,8) 0.437842 (1,11,10) -7.500245E-02 (1,12,9) -6.983080E-02
(1,11,10): (1,10,10) 1.943383E-02 (1,11,9) 7.500245E-02 (1,12,10) -1.018989E-02
(1,12,1): (1,11,1) 1.145692E-03 (1,12,2) 2.418307E-03 (1,13,1) -3.272428E-04
(1,12,2): (1,11,2) 9.159995E-03 (1,12,1) -2.418307E-03 (1,12,3) 1.567706E-02 (1,13,2) -2.326261E-03
(1,12,3): (1,11,3) 6.972539E-02 (1,12,2) -1.567706E-02 (1,12,4) 7.671268E-02 (1,13,3) -1.554102E-02
(1,12,4): (1,11,4) 0.430963 (1,12,3) -7.671268E-02 (1,12,5) 0.228300 (1,13,4) -8.159400E-02
(1,12,5): (1,11,5) 1.84735 (1,12,4) -0.228300 (1,12,6) 5.297963E-02 (1,13,5) -0.282726
(1,12,6): (1,11,6) 2.06843 (1,12,5) -5.297963E-02 (1,12,7) -5.297922E-02 (1,13,6) -0.328294
(1,12,7): (1,11,7) 1.84735 (1,12,6) 5.297922E-02 (1,12,8) -0.228296 (1,13,7) -0.282726
(1,12,8): (1,11,8) 0.430973 (1,12,7) 0.228296 (1,12,9) -7.667578E-02 (1,13,8) -8.159735E-02
(1,12,9): (1,11,9) 6.983080E-02 (1,12,8) 7.667578E-02 (1,12,10) -1.535846E-02 (1,13,9) -1.557371E-02
(1,12,10): (1,11,10) 1.018989E-02 (1,12,9) 1.535846E-02 (1,13,10) -2.617193E-03
(1,13,1): (1,12,1) 3.272428E-04 (1,13,2) 4.192868E-04 (1,14,1) -6.593818E-05
(1,13,2): (1,12,2) 2.326261E-03 (1,13,1) -4.192868E-04 (1,13,3) 2.462276E-03 (1,14,2) -4.251337E-04
(1,13,3): (1,12,3) 1.554102E-02 (1,13,2) -2.462276E-03 (1,13,4) 1.066293E-02 (1,14,3) -2.563135E-03
(1,13,4): (1,12,4) 8.159400E-02 (1,13,3) -1.066293E-02 (1,13,5) 2.727737E-02 (1,14,4) -1.195503E-02
(1,13,5): (1,12,5) 0.282726 (1,13,4) -2.727737E-02 (1,13,6) 7.535229E-03 (1,14,5) -3.632772E-02
(1,13,6): (1,12,6) 0.328294 (1,13,5) -7.535229E-03 (1,13,7) -7.535132E-03 (1,14,6) -4.296892E-02
(1,13,7): (1,12,7) 0.282726 (1,13,6) 7.535132E-03 (1,13,8) -2.727652E-02 (1,14,7) -3.632779E-02
(1,13,8): (1,12,8) 8.159735E-02 (1,13,7) 2.727652E-02 (1,13,9) -1.065538E-02 (1,14,8) -1.195580E-02
(1,13,9): (1,12,9) 1.557371E-02 (1,13,8) 1.065538E-02 (1,13,10) -2.401967E-03 (1,14,9) -2.570197E-03
(1,13,10): (1,12,10) 2.617193E-03 (1,13,9) 2.401967E-03 (1,14,10) -4.831537E-04
(1,14,1): (1,13,1) 6.593818E-05 (1,14,2) 6.009136E-05 (1,15,1) -1.049585E-05
(1,14,2): (1,13,2) 4.251337E-04 (1,14,1) -6.009136E-05 (1,14,3) 3.242767E-04 (1,15,2) -6.228418E-05
(1,14,3): (1,13,3) 2.563135E-03 (1,14,2) -3.242767E-04 (1,14,4) 1.271156E-03 (1,15,3) -3.451888E-04
(1,14,4): (1,13,4) 1.195503E-02 (1,14,3) -1.271156E-03 (1,14,5) 2.906886E-03 (1,15,4) -1.468238E-03
(1,14,5): (1,13,5) 3.632772E-02 (1,14,4) -2.906886E-03 (1,14,6) 8.963766E-04 (1,15,5) -4.067165E-03
(1,14,6): (1,13,6) 4.296892E-02 (1,14,5) -8.963766E-04 (1,14,7) -8.963574E-04 (1,15,6) -4.860494E-03
(1,14,7): (1,13,7) 3.632779E-02 (1,14,6) 8.963574E-04 (1,14,8) -2.906735E-03 (1,15,7) -4.067179E-03
(1,14,8): (1,13,8) 1.195580E-02 (1,14,7) 2.906735E-03 (1,14,9) -1.269901E-03 (1,15,8) -1.468377E-03
(1,14,9): (1,13,9) 2.570197E-03 (1,14,8) 1.269901E-03 (1,14,10) -3.149271E-04 (1,15,9) -3.463815E-04
(1,14,10): (1,13,10) 4.831537E-04 (1,14,9) 3.149271E-04 (1,15,10) -7.143117E-05
(1,15,1): (1,14,1) 1.049585E-05 (1,15,2) 8.303035E-06
(1,15,2): (1,14,2) 6.228418E-05 (1,15,1) -8.303035E-06 (1,15,3) 4.137218E-05
(1,15,3): (1,14,3) 3.451888E-04 (1,15,2) -4.137218E-05 (1,15,4) 1.481098E-04
(1,15,4): (1,14,4) 1.468238E-03 (1,15,3) -1.481098E-04 (1,15,5) 3.079892E-04
(1,15,5): (1,14,5) 4.067165E-03 (1,15,4) -3.079892E-04 (1,15,6) 1.030782E-04
(1,15,6): (1,14,6) 4.860494E-03 (1,15,5) -1.030782E-04 (1,15,7) -1.030737E-04
(1,15,7): (1,14,7) 4.067179E-03 (1,15,6) 1.030737E-04 (1,15,8) -3.079625E-04
(1,15,8): (1,14,8) 1.468377E-03 (1,15,7) 3.079625E-04 (1,15,9) -1.479082E-04
(1,15,9): (1,14,9) 3.463815E-04 (1,15,8) 1.479082E-04 (1,15,10) -3.997693E-05
(1,15,10): (1,14,10) 7.143117E-05 (1,15,9) 3.997693E-05

 WEL PACKAGE (WEL-1) FLOW RATES   PERIOD      2   STEP        9
 ----------------------------------------------------------------------------------------
   NUMBER   CELLID                    RATE       NAME                                    
 ----------------------------------------------------------------------------------------
     1      (1,8,6)              -270.00000      WEL                                     
 ----------------------------------------------------------------------------------------




 API PACKAGE (MAR) FLOW RATES   PERIOD      2   STEP        9
 -----------------------------------------------
   NUMBER   CELLID                    RATE      
 -----------------------------------------------
     1      (1,6,5)               46.666667     
     2      (1,6,6)               46.666667     
     3      (1,6,7)               46.666667     
     4      (1,10,5)              43.333333     
     5      (1,10,6)              43.333333     
     6      (1,10,7)              43.333333     
 -----------------------------------------------



1
  HEAD IN LAYER   1 AT END OF TIME STEP   9 IN STRESS PERIOD    2
  ---------------------------------------------------------------------------

            1           2           3           4           5           6           7           8           9          10
 ........................................................................................................................
   1   2.0415E-07  1.1019E-06  5.5750E-06  2.1592E-05  5.4919E-05  6.6123E-05  5.4919E-05  2.1595E-05  5.5998E-06  1.2775E-06
   2   1.3387E-06  7.8359E-06  4.2904E-05  1.8041E-04  4.9508E-04  5.9273E-04  4.9508E-04  1.8043E-04  4.3058E-05  9.0003E-06
   3   8.4691E-06  5.3817E-05  3.2018E-04  1.4740E-03  4.4271E-03  5.2505E-03  4.4271E-03  1.4741E-03  3.2110E-04  6.1256E-05
   4   4.3877E-05  3.0556E-04  2.0021E-03  1.0301E-02  3.4957E-02  4.0763E-02  3.4957E-02  1.0301E-02  2.0066E-03  3.4447E-04
   5   1.6799E-04  1.2978E-03  9.5505E-03  5.6751E-02  0.2308      0.2602      0.2308      5.6752E-02  9.5664E-03  1.4483E-03
   6   3.7205E-04  3.2251E-03  2.7395E-02  0.1998       1.136       1.189       1.136      0.1998      2.7427E-02  3.5614E-03
   7   9.1823E-05  6.2368E-04  3.7554E-03  1.4323E-02 -1.3164E-02 -0.6803     -1.3164E-02  1.4324E-02  3.7648E-03  7.0512E-04
   8  -1.0179E-04 -1.1537E-03 -1.2332E-02 -0.1143     -0.8971      -6.051     -0.8971     -0.1143     -1.2339E-02 -1.2481E-03
   9   7.9631E-05  5.2867E-04  3.0514E-03  1.0113E-02 -3.0506E-02 -0.7008     -3.0506E-02  1.0114E-02  3.0596E-03  5.9918E-04
  10   3.4264E-04  2.9703E-03  2.5234E-02  0.1843       1.054       1.098       1.054      0.1843      2.5264E-02  3.2799E-03
  11   1.5512E-04  1.1983E-03  8.8162E-03  5.2385E-02  0.2132      0.2396      0.2132      5.2387E-02  8.8308E-03  1.3372E-03
  12   4.0556E-05  2.8238E-04  1.8498E-03  9.5138E-03  3.2270E-02  3.7549E-02  3.2270E-02  9.5142E-03  1.8539E-03  3.1835E-04
  13   7.8321E-06  4.9761E-05  2.9598E-04  1.3621E-03  4.0888E-03  4.8419E-03  4.0888E-03  1.3622E-03  2.9683E-04  5.6640E-05
  14   1.2383E-06  7.2474E-06  3.9675E-05  1.6679E-04  4.5746E-04  5.4710E-04  4.5747E-04  1.6681E-04  3.9818E-05  8.3250E-06
  15   1.8873E-07  1.0190E-06  5.1562E-06  1.9967E-05  5.0766E-05  6.1074E-05  5.0766E-05  1.9970E-05  5.1795E-06  1.1818E-06

 HEAD WILL BE SAVED ON UNIT 1043 AT END OF TIME STEP    9, STRESS PERIOD    2


  VOLUME BUDGET FOR ENTIRE MODEL AT END OF TIME STEP    9, STRESS PERIOD   2
  ---------------------------------------------------------------------------------------------------

     CUMULATIVE VOLUME      L**3       RATES FOR THIS TIME STEP      L**3/T          PACKAGE NAME    
     ------------------                 ------------------------                     ----------------

           IN:                                      IN:
           ---                                      ---
              STO-SS =           7.6759                STO-SS =       6.0875E-02     STORAGE                          
              STO-SY =       19272.9087                STO-SY =         172.3451     STORAGE                          
                 WEL =           0.0000                   WEL =           0.0000     WEL-1                            
                 API =       24300.0000                   API =         270.0000     MAR                              
                 CHD =       2.8247E-08                   CHD =           0.0000     CHD_0                            

            TOTAL IN =       43580.5846              TOTAL IN =         442.4060

          OUT:                                     OUT:
          ----                                     ----
              STO-SS =          10.0312                STO-SS =       9.1171E-02     STORAGE                          
              STO-SY =       19270.5534                STO-SY =         172.3148     STORAGE                          
                 WEL =       24300.0000                   WEL =         270.0000     WEL-1                            
                 API =           0.0000                   API =           0.0000     MAR                              
                 CHD =       3.0388E-08                   CHD =           0.0000     CHD_0                            

           TOTAL OUT =       43580.5846             TOTAL OUT =         442.4060

            IN - OUT =      -4.4682E-08              IN - OUT =      -2.0481E-10

 PERCENT DISCREPANCY =          -0.00     PERCENT DISCREPANCY =          -0.00




         TIME SUMMARY AT END OF TIME STEP    9 IN STRESS PERIOD    2
                    SECONDS     MINUTES      HOURS       DAYS        YEARS
                    -----------------------------------------------------------
   TIME STEP LENGTH 8.64000E+05  14400.      240.00      10.000     2.73785E-02
 STRESS PERIOD TIME 7.77600E+06 1.29600E+05  2160.0      90.000     0.24641    
         TOTAL TIME 7.86240E+06 1.31040E+05  2184.0      91.000     0.24914    


end timestep


start timestep kper="2" kstp="10" mode="normal"

 UBDSV1 SAVING           STO-SS ON UNIT   1042 AT TIME STEP     10, STRESS PERIOD      2
 UBDSV1 SAVING           STO-SY ON UNIT   1042 AT TIME STEP     10, STRESS PERIOD      2
 UBDSV1 SAVING     FLOW-JA-FACE ON UNIT   1042 AT TIME STEP     10, STRESS PERIOD      2
 UBDSV06 SAVING       DATA-SPDIS IN MODEL GWF              PACKAGE NPF             CONNECTED TO MODEL GWF              PACKAGE NPF              ON UNIT   1042 AT TIME STEP     10, STRESS PERIOD      2
 UBDSV06 SAVING              WEL IN MODEL GWF              PACKAGE GWF             CONNECTED TO MODEL GWF              PACKAGE WEL-1            ON UNIT   1042 AT TIME STEP     10, STRESS PERIOD      2
 UBDSV06 SAVING              API IN MODEL GWF              PACKAGE GWF             CONNECTED TO MODEL GWF              PACKAGE MAR              ON UNIT   1042 AT TIME STEP     10, STRESS PERIOD      2
 UBDSV06 SAVING              CHD IN MODEL GWF              PACKAGE GWF             CONNECTED TO MODEL GWF              PACKAGE CHD_0            ON UNIT   1042 AT TIME STEP     10, STRESS PERIOD      2

    CALCULATED INTERCELL FLOW FOR PERIOD 2 STEP 10
(1,1,1): (1,1,2) 1.568425E-05 (1,2,1) 1.981924E-05
(1,1,2): (1,1,1) -1.568425E-05 (1,1,3) 7.431213E-05 (1,2,2) 1.110673E-04
(1,1,3): (1,1,2) -7.431213E-05 (1,1,4) 2.522238E-04 (1,2,3) 5.837043E-04
(1,1,4): (1,1,3) -2.522238E-04 (1,1,5) 4.989090E-04 (1,2,4) 2.356870E-03
(1,1,5): (1,1,4) -4.989090E-04 (1,1,6) 1.728370E-04 (1,2,5) 6.244019E-03
(1,1,6): (1,1,5) -1.728370E-04 (1,1,7) -1.728297E-04 (1,2,6) 7.480092E-03
(1,1,7): (1,1,6) 1.728297E-04 (1,1,8) -4.988530E-04 (1,2,7) 6.244051E-03
(1,1,8): (1,1,7) 4.988530E-04 (1,1,9) -2.518043E-04 (1,2,8) 2.357159E-03
(1,1,9): (1,1,8) 2.518043E-04 (1,1,10) -7.153707E-05 (1,2,9) 5.860560E-04
(1,1,10): (1,1,9) 7.153707E-05 (1,2,10) 1.282114E-04
(1,2,1): (1,1,1) -1.981924E-05 (1,2,2) 1.069323E-04 (1,3,1) 1.179424E-04
(1,2,2): (1,1,2) -1.110673E-04 (1,2,1) -1.069323E-04 (1,2,3) 5.469490E-04 (1,3,2) 7.157305E-04
(1,2,3): (1,1,3) -5.837043E-04 (1,2,2) -5.469490E-04 (1,2,4) 2.025384E-03 (1,3,3) 4.077246E-03
(1,2,4): (1,1,4) -2.356870E-03 (1,2,3) -2.025384E-03 (1,2,5) 4.385985E-03 (1,3,4) 1.797913E-02
(1,2,5): (1,1,5) -6.244019E-03 (1,2,4) -4.385985E-03 (1,2,6) 1.408836E-03 (1,3,5) 5.199639E-02
(1,2,6): (1,1,6) -7.480092E-03 (1,2,5) -1.408836E-03 (1,2,7) -1.408796E-03 (1,3,6) 6.172147E-02
(1,2,7): (1,1,7) -6.244051E-03 (1,2,6) 1.408796E-03 (1,2,8) -4.385673E-03 (1,3,7) 5.199656E-02
(1,2,8): (1,1,8) -2.357159E-03 (1,2,7) 4.385673E-03 (1,2,9) -2.022901E-03 (1,3,8) 1.798066E-02
(1,2,9): (1,1,9) -5.860560E-04 (1,2,8) 2.022901E-03 (1,2,10) -5.293815E-04 (1,3,9) 4.090474E-03
(1,2,10): (1,1,10) -1.282114E-04 (1,2,9) 5.293815E-04 (1,3,10) 8.187514E-04
(1,3,1): (1,2,1) -1.179424E-04 (1,3,2) 7.047204E-04 (1,4,1) 5.515099E-04
(1,3,2): (1,2,2) -7.157305E-04 (1,3,1) -7.047204E-04 (1,3,3) 3.908459E-03 (1,4,2) 3.677502E-03
(1,3,3): (1,2,3) -4.077246E-03 (1,3,2) -3.908459E-03 (1,3,4) 1.592698E-02 (1,4,3) 2.312882E-02
(1,3,4): (1,2,4) -1.797913E-02 (1,3,3) -1.592698E-02 (1,3,5) 3.839863E-02 (1,4,4) 0.114328
(1,3,5): (1,2,5) -5.199639E-02 (1,3,4) -3.839863E-02 (1,3,6) 1.112900E-02 (1,4,5) 0.375075
(1,3,6): (1,2,6) -6.172147E-02 (1,3,5) -1.112900E-02 (1,3,7) -1.112880E-02 (1,4,6) 0.437561
(1,3,7): (1,2,7) -5.199656E-02 (1,3,6) 1.112880E-02 (1,3,8) -3.839695E-02 (1,4,7) 0.375076
(1,3,8): (1,2,8) -1.798066E-02 (1,3,7) 3.839695E-02 (1,3,9) -1.591280E-02 (1,4,8) 0.114335
(1,3,9): (1,2,9) -4.090474E-03 (1,3,8) 1.591280E-02 (1,3,10) -3.801095E-03 (1,4,9) 2.318672E-02
(1,3,10): (1,2,10) -8.187514E-04 (1,3,9) 3.801095E-03 (1,4,10) 4.164342E-03
(1,4,1): (1,3,1) -5.515099E-04 (1,4,2) 3.830717E-03 (1,5,1) 1.809637E-03
(1,4,2): (1,3,2) -3.677502E-03 (1,4,1) -3.830717E-03 (1,4,3) 2.335982E-02 (1,5,2) 1.352403E-02
(1,4,3): (1,3,3) -2.312882E-02 (1,4,2) -2.335982E-02 (1,4,4) 0.107120 (1,5,3) 9.656000E-02
(1,4,4): (1,3,4) -0.114328 (1,4,3) -0.107120 (1,4,5) 0.298949 (1,5,4) 0.559727
(1,4,5): (1,3,5) -0.375075 (1,4,4) -0.298949 (1,4,6) 7.339040E-02 (1,5,5) 2.26039
(1,4,6): (1,3,6) -0.437561 (1,4,5) -7.339040E-02 (1,4,7) -7.338957E-02 (1,5,6) 2.54342
(1,4,7): (1,3,7) -0.375076 (1,4,6) 7.338957E-02 (1,4,8) -0.298941 (1,5,7) 2.26039
(1,4,8): (1,3,8) -0.114335 (1,4,7) 0.298941 (1,4,9) -0.107054 (1,5,8) 0.559745
(1,4,9): (1,3,9) -2.318672E-02 (1,4,8) 0.107054 (1,4,10) -2.282341E-02 (1,5,9) 9.673573E-02
(1,4,10): (1,3,10) -4.164342E-03 (1,4,9) 2.282341E-02 (1,5,10) 1.513976E-02
(1,5,1): (1,4,1) -1.809637E-03 (1,5,2) 1.554535E-02 (1,6,1) 2.728949E-03
(1,5,2): (1,4,2) -1.352403E-02 (1,5,1) -1.554535E-02 (1,5,3) 0.106404 (1,6,2) 2.405465E-02
(1,5,3): (1,4,3) -9.656000E-02 (1,5,2) -0.106404 (1,5,4) 0.570335 (1,6,3) 0.209157
(1,5,4): (1,4,4) -0.559727 (1,5,3) -0.570335 (1,5,5) 1.99536 (1,6,4) 1.60059
(1,5,5): (1,4,5) -2.26039 (1,5,4) -1.99536 (1,5,6) 0.350722 (1,6,5) 10.4533
(1,5,6): (1,4,6) -2.54342 (1,5,5) -0.350722 (1,5,7) -0.350719 (1,6,6) 10.7178
(1,5,7): (1,4,7) -2.26039 (1,5,6) 0.350719 (1,5,8) -1.99534 (1,6,7) 10.4533
(1,5,8): (1,4,8) -0.559745 (1,5,7) 1.99534 (1,5,9) -0.570110 (1,6,8) 1.60061
(1,5,9): (1,4,9) -9.673573E-02 (1,5,8) 0.570110 (1,5,10) -0.104426 (1,6,9) 0.209394
(1,5,10): (1,4,10) -1.513976E-02 (1,5,9) 0.104426 (1,6,10) 2.652587E-02
(1,6,1): (1,5,1) -2.728949E-03 (1,6,2) 3.687379E-02 (1,7,1) -3.910800E-03
(1,6,2): (1,5,2) -2.405465E-02 (1,6,1) -3.687379E-02 (1,6,3) 0.291658 (1,7,2) -3.386166E-02
(1,6,3): (1,5,3) -0.209157 (1,6,2) -0.291658 (1,6,4) 1.96663 (1,7,3) -0.288511
(1,6,4): (1,5,4) -1.60059 (1,6,3) -1.96663 (1,6,5) 10.8775 (1,7,4) -2.15454
(1,6,5): (1,5,5) -10.4533 (1,6,4) -10.8775 (1,6,6) 0.598101 (1,7,5) -13.7098
(1,6,6): (1,5,6) -10.7178 (1,6,5) -0.598101 (1,6,7) -0.598096 (1,7,6) -22.5653
(1,6,7): (1,5,7) -10.4533 (1,6,6) 0.598096 (1,6,8) -10.8774 (1,7,7) -13.7098
(1,6,8): (1,5,8) -1.60061 (1,6,7) 10.8774 (1,6,9) -1.96618 (1,7,8) -2.15458
(1,6,9): (1,5,9) -0.209394 (1,6,8) 1.96618 (1,6,10) -0.287436 (1,7,9) -0.288855
(1,6,10): (1,5,10) -2.652587E-02 (1,6,9) 0.287436 (1,7,10) -3.739828E-02
(1,7,1): (1,6,1) 3.910800E-03 (1,7,2) 6.922021E-03 (1,8,1) -2.775627E-03
(1,7,2): (1,6,2) 3.386166E-02 (1,7,1) -6.922021E-03 (1,7,3) 3.700064E-02 (1,8,2) -2.380985E-02
(1,7,3): (1,6,3) 0.288511 (1,7,2) -3.700064E-02 (1,7,4) 0.103936 (1,8,3) -0.201933
(1,7,4): (1,6,4) 2.15454 (1,7,3) -0.103936 (1,7,5) -0.423194 (1,8,4) -1.51174
(1,7,5): (1,6,5) 13.7098 (1,7,4) 0.423194 (1,7,6) -7.26198 (1,8,5) -9.71076
(1,7,6): (1,6,6) 22.5653 (1,7,5) 7.26198 (1,7,7) 7.26198 (1,8,6) -52.1450
(1,7,7): (1,6,7) 13.7098 (1,7,6) -7.26198 (1,7,8) 0.423208 (1,8,7) -9.71077
(1,7,8): (1,6,8) 2.15458 (1,7,7) -0.423208 (1,7,9) -0.103809 (1,8,8) -1.51176
(1,7,9): (1,6,9) 0.288855 (1,7,8) 0.103809 (1,7,10) -3.598221E-02 (1,8,9) -0.202178
(1,7,10): (1,6,10) 3.739828E-02 (1,7,9) 3.598221E-02 (1,8,10) -2.631634E-02
(1,8,1): (1,7,1) 2.775627E-03 (1,8,2) -1.411064E-02 (1,9,1) 2.593957E-03
(1,8,2): (1,7,2) 2.380985E-02 (1,8,1) 1.411064E-02 (1,8,3) -0.141027 (1,9,2) 2.248753E-02
(1,8,3): (1,7,3) 0.201933 (1,8,2) 0.141027 (1,8,4) -1.20198 (1,9,3) 0.192738
(1,8,4): (1,7,4) 1.51174 (1,8,3) 1.20198 (1,8,5) -8.53279 (1,9,4) 1.45960
(1,8,5): (1,7,5) 9.71076 (1,8,4) 8.53279 (1,8,6) -48.5502 (1,9,5) 9.49379
(1,8,6): (1,7,6) 52.1450 (1,8,5) 48.5502 (1,8,7) 48.5502 (1,9,6) 51.7941
(1,8,7): (1,7,7) 9.71077 (1,8,6) -48.5502 (1,8,8) 8.53278 (1,9,7) 9.49379
(1,8,8): (1,7,8) 1.51176 (1,8,7) -8.53278 (1,8,9) 1.20189 (1,9,8) 1.45962
(1,8,9): (1,7,9) 0.202178 (1,8,8) -1.20189 (1,8,10) 0.139783 (1,9,9) 0.192965
(1,8,10): (1,7,10) 2.631634E-02 (1,8,9) -0.139783 (1,9,10) 2.483221E-02
(1,9,1): (1,8,1) -2.593957E-03 (1,9,2) 5.781601E-03 (1,10,1) 3.673996E-03
(1,9,2): (1,8,2) -2.248753E-02 (1,9,1) -5.781601E-03 (1,9,3) 2.914324E-02 (1,10,2) 3.181574E-02
(1,9,3): (1,8,3) -0.192738 (1,9,2) -2.914324E-02 (1,9,4) 6.170008E-02 (1,10,3) 0.271016
(1,9,4): (1,8,4) -1.45960 (1,9,3) -6.170008E-02 (1,9,5) -0.570379 (1,10,4) 2.02291
(1,9,5): (1,8,5) -9.49379 (1,9,4) 0.570379 (1,9,6) -7.28487 (1,10,5) 12.8653
(1,9,6): (1,8,6) -51.7941 (1,9,5) 7.28487 (1,9,7) 7.28487 (1,10,6) 21.5480
(1,9,7): (1,8,7) -9.49379 (1,9,6) -7.28487 (1,9,8) 0.570392 (1,10,7) 12.8653
(1,9,8): (1,8,8) -1.45962 (1,9,7) -0.570392 (1,9,9) -6.158905E-02 (1,10,8) 2.02294
(1,9,9): (1,8,9) -0.192965 (1,9,8) 6.158905E-02 (1,9,10) -2.826869E-02 (1,10,9) 0.271340
(1,9,10): (1,8,10) -2.483221E-02 (1,9,9) 2.826869E-02 (1,10,10) 3.513825E-02
(1,10,1): (1,9,1) -3.673996E-03 (1,10,2) 3.392394E-02 (1,11,1) -2.503417E-03
(1,10,2): (1,9,2) -3.181574E-02 (1,10,1) -3.392394E-02 (1,10,3) 0.268338 (1,11,2) -2.208128E-02
(1,10,3): (1,9,3) -0.271016 (1,10,2) -0.268338 (1,10,4) 1.81002 (1,11,3) -0.192138
(1,10,4): (1,9,4) -2.02291 (1,10,3) -1.81002 (1,10,5) 10.0304 (1,11,4) -1.47212
(1,10,5): (1,9,5) -12.8653 (1,10,4) -10.0304 (1,10,6) 0.470570 (1,11,5) -9.63773
(1,10,6): (1,9,6) -21.5480 (1,10,5) -0.470570 (1,10,7) -0.470565 (1,11,6) -9.80497
(1,10,7): (1,9,7) -12.8653 (1,10,6) 0.470565 (1,10,8) -10.0303 (1,11,7) -9.63773
(1,10,8): (1,9,8) -2.02294 (1,10,7) 10.0303 (1,10,9) -1.80961 (1,11,8) -1.47214
(1,10,9): (1,9,9) -0.271340 (1,10,8) 1.80961 (1,10,10) -0.264454 (1,11,9) -0.192355
(1,10,10): (1,9,10) -3.513825E-02 (1,10,9) 0.264454 (1,11,10) -2.434834E-02
(1,11,1): (1,10,1) 2.503417E-03 (1,11,2) 1.434375E-02 (1,12,1) -1.669420E-03
(1,11,2): (1,10,2) 2.208128E-02 (1,11,1) -1.434375E-02 (1,11,3) 9.815205E-02 (1,12,2) -1.247455E-02
(1,11,3): (1,10,3) 0.192138 (1,11,2) -9.815205E-02 (1,11,4) 0.525905 (1,12,3) -8.904886E-02
(1,11,4): (1,10,4) 1.47212 (1,11,3) -0.525905 (1,11,5) 1.83919 (1,12,4) -0.516043
(1,11,5): (1,10,5) 9.63773 (1,11,4) -1.83919 (1,11,6) 0.313132 (1,12,5) -2.08317
(1,11,6): (1,10,6) 9.80497 (1,11,5) -0.313132 (1,11,7) -0.313130 (1,12,6) -2.33439
(1,11,7): (1,10,7) 9.63773 (1,11,6) 0.313130 (1,11,8) -1.83917 (1,12,7) -2.08318
(1,11,8): (1,10,8) 1.47214 (1,11,7) 1.83917 (1,11,9) -0.525697 (1,12,8) -0.516060
(1,11,9): (1,10,9) 0.192355 (1,11,8) 0.525697 (1,11,10) -9.632645E-02 (1,12,9) -8.921095E-02
(1,11,10): (1,10,10) 2.434834E-02 (1,11,9) 9.632645E-02 (1,12,10) -1.396504E-02
(1,12,1): (1,11,1) 1.669420E-03 (1,12,2) 3.538424E-03 (1,13,1) -5.094819E-04
(1,12,2): (1,11,2) 1.247455E-02 (1,12,1) -3.538424E-03 (1,12,3) 2.157078E-02 (1,13,2) -3.396563E-03
(1,12,3): (1,11,3) 8.904886E-02 (1,12,2) -2.157078E-02 (1,12,4) 9.886876E-02 (1,13,3) -2.135592E-02
(1,12,4): (1,11,4) 0.516043 (1,12,3) -9.886876E-02 (1,12,5) 0.275680 (1,13,4) -0.105520
(1,12,5): (1,11,5) 2.08317 (1,12,4) -0.275680 (1,12,6) 6.660600E-02 (1,13,5) -0.345934
(1,12,6): (1,11,6) 2.33439 (1,12,5) -6.660600E-02 (1,12,7) -6.660523E-02 (1,13,6) -0.402558
(1,12,7): (1,11,7) 2.08318 (1,12,6) 6.660523E-02 (1,12,8) -0.275673 (1,13,7) -0.345935
(1,12,8): (1,11,8) 0.516060 (1,12,7) 0.275673 (1,12,9) -9.880790E-02 (1,13,8) -0.105526
(1,12,9): (1,11,9) 8.921095E-02 (1,12,8) 9.880790E-02 (1,12,10) -2.107520E-02 (1,13,9) -2.140941E-02
(1,12,10): (1,11,10) 1.396504E-02 (1,12,9) 2.107520E-02 (1,13,10) -3.846290E-03
(1,13,1): (1,12,1) 5.094819E-04 (1,13,2) 6.513394E-04 (1,14,1) -1.090279E-04
(1,13,2): (1,12,2) 3.396563E-03 (1,13,1) -6.513394E-04 (1,13,3) 3.611384E-03 (1,14,2) -6.614975E-04
(1,13,3): (1,12,3) 2.135592E-02 (1,13,2) -3.611384E-03 (1,13,4) 1.470981E-02 (1,14,3) -3.767293E-03
(1,13,4): (1,12,4) 0.105520 (1,13,3) -1.470981E-02 (1,13,5) 3.543340E-02 (1,14,4) -1.660585E-02
(1,13,5): (1,12,5) 0.345934 (1,13,4) -3.543340E-02 (1,13,6) 1.017009E-02 (1,14,5) -4.799356E-02
(1,13,6): (1,12,6) 0.402558 (1,13,5) -1.017009E-02 (1,13,7) -1.016990E-02 (1,14,6) -5.687550E-02
(1,13,7): (1,12,7) 0.345935 (1,13,6) 1.016990E-02 (1,13,8) -3.543184E-02 (1,14,7) -4.799371E-02
(1,13,8): (1,12,8) 0.105526 (1,13,7) 3.543184E-02 (1,13,9) -1.469670E-02 (1,14,8) -1.660726E-02
(1,13,9): (1,12,9) 2.140941E-02 (1,13,8) 1.469670E-02 (1,13,10) -3.512132E-03 (1,14,9) -3.779523E-03
(1,13,10): (1,12,10) 3.846290E-03 (1,13,9) 3.512132E-03 (1,14,10) -7.567290E-04
(1,14,1): (1,13,1) 1.090279E-04 (1,14,2) 9.886984E-05 (1,15,1) -1.832876E-05
(1,14,2): (1,13,2) 6.614975E-04 (1,14,1) -9.886984E-05 (1,14,3) 5.055929E-04 (1,15,2) -1.026950E-04
(1,14,3): (1,13,3) 3.767293E-03 (1,14,2) -5.055929E-04 (1,14,4) 1.871502E-03 (1,15,3) -5.395743E-04
(1,14,4): (1,13,4) 1.660585E-02 (1,14,3) -1.871502E-03 (1,14,5) 4.049619E-03 (1,15,4) -2.177931E-03
(1,14,5): (1,13,5) 4.799356E-02 (1,14,4) -4.049619E-03 (1,14,6) 1.292294E-03 (1,15,5) -5.766740E-03
(1,14,6): (1,13,6) 5.687550E-02 (1,14,5) -1.292294E-03 (1,14,7) -1.292257E-03 (1,15,6) -6.900170E-03
(1,14,7): (1,13,7) 4.799371E-02 (1,14,6) 1.292257E-03 (1,14,8) -4.049329E-03 (1,15,7) -5.766769E-03
(1,14,8): (1,13,8) 1.660726E-02 (1,14,7) 4.049329E-03 (1,14,9) -1.869205E-03 (1,15,8) -2.178198E-03
(1,14,9): (1,13,9) 3.779523E-03 (1,14,8) 1.869205E-03 (1,14,10) -4.893468E-04 (1,15,9) -5.417490E-04
(1,14,10): (1,13,10) 7.567290E-04 (1,14,9) 4.893468E-04 (1,15,10) -1.185492E-04
(1,15,1): (1,14,1) 1.832876E-05 (1,15,2) 1.450357E-05
(1,15,2): (1,14,2) 1.026950E-04 (1,15,1) -1.450357E-05 (1,15,3) 6.871377E-05
(1,15,3): (1,14,3) 5.395743E-04 (1,15,2) -6.871377E-05 (1,15,4) 2.331497E-04
(1,15,4): (1,14,4) 2.177931E-03 (1,15,3) -2.331497E-04 (1,15,5) 4.608718E-04
(1,15,5): (1,14,5) 5.766740E-03 (1,15,4) -4.608718E-04 (1,15,6) 1.589275E-04
(1,15,6): (1,14,6) 6.900170E-03 (1,15,5) -1.589275E-04 (1,15,7) -1.589193E-04
(1,15,7): (1,14,7) 5.766769E-03 (1,15,6) 1.589193E-04 (1,15,8) -4.608186E-04
(1,15,8): (1,14,8) 2.178198E-03 (1,15,7) 4.608186E-04 (1,15,9) -2.327608E-04
(1,15,9): (1,14,9) 5.417490E-04 (1,15,8) 2.327608E-04 (1,15,10) -6.614717E-05
(1,15,10): (1,14,10) 1.185492E-04 (1,15,9) 6.614717E-05

 WEL PACKAGE (WEL-1) FLOW RATES   PERIOD      2   STEP       10
 ----------------------------------------------------------------------------------------
   NUMBER   CELLID                    RATE       NAME                                    
 ----------------------------------------------------------------------------------------
     1      (1,8,6)              -270.00000      WEL                                     
 ----------------------------------------------------------------------------------------




 API PACKAGE (MAR) FLOW RATES   PERIOD      2   STEP       10
 -----------------------------------------------
   NUMBER   CELLID                    RATE      
 -----------------------------------------------
     1      (1,6,5)               46.666667     
     2      (1,6,6)               46.666667     
     3      (1,6,7)               46.666667     
     4      (1,10,5)              43.333333     
     5      (1,10,6)              43.333333     
     6      (1,10,7)              43.333333     
 -----------------------------------------------



1
  HEAD IN LAYER   1 AT END OF TIME STEP  10 IN STRESS PERIOD    2
  ---------------------------------------------------------------------------

            1           2           3           4           5           6           7           8           9          10
 ........................................................................................................................
   1   3.8157E-07  1.9500E-06  9.3812E-06  3.4603E-05  8.4494E-05  1.0178E-04  8.4495E-05  3.4610E-05  9.4295E-06  2.2758E-06
   2   2.3635E-06  1.3057E-05  6.7751E-05  2.7028E-04  7.0885E-04  8.4972E-04  7.0886E-04  2.7032E-04  6.8035E-05  1.5097E-05
   3   1.4158E-05  8.4629E-05  4.7546E-04  2.0678E-03  5.9054E-03  7.0175E-03  5.9054E-03  2.0680E-03  4.7706E-04  9.6971E-05
   4   6.9308E-05  4.5236E-04  2.7877E-03  1.3485E-02  4.3251E-02  5.0554E-02  4.3251E-02  1.3486E-02  2.7951E-03  5.1338E-04
   5   2.5027E-04  1.8045E-03  1.2432E-02  6.9074E-02  0.2635      0.2975      0.2635      6.9077E-02  1.2457E-02  2.0271E-03
   6   5.2315E-04  4.2090E-03  3.3278E-02  0.2256       1.197       1.250       1.197      0.2256      3.3327E-02  4.6784E-03
   7   1.3209E-04  8.2423E-04  4.5226E-03  1.4901E-02 -2.7356E-02 -0.7555     -2.7356E-02  1.4902E-02  4.5369E-03  9.4032E-04
   8  -1.4547E-04 -1.5566E-03 -1.5661E-02 -0.1360      -1.001      -6.396      -1.001     -0.1360     -1.5672E-02 -1.6911E-03
   9   1.1392E-04  6.9204E-04  3.6053E-03  9.7693E-03 -4.7213E-02 -0.7792     -4.7213E-02  9.7707E-03  3.6178E-03  7.9196E-04
  10   4.8130E-04  3.8724E-03  3.0624E-02  0.2079       1.111       1.153       1.111      0.2079      3.0669E-02  4.3043E-03
  11   2.3097E-04  1.6651E-03  1.1469E-02  6.3727E-02  0.2433      0.2738      0.2433      6.3729E-02  1.1492E-02  1.8705E-03
  12   6.4036E-05  4.1786E-04  2.5744E-03  1.2449E-02  3.9907E-02  4.6537E-02  3.9907E-02  1.2450E-02  2.5812E-03  4.7424E-04
  13   1.3088E-05  7.8222E-05  4.3934E-04  1.9100E-03  5.4515E-03  6.4678E-03  5.4515E-03  1.9102E-03  4.4083E-04  8.9632E-05
  14   2.1857E-06  1.2073E-05  6.2632E-05  2.4978E-04  6.5471E-04  7.8393E-04  6.5472E-04  2.4981E-04  6.2894E-05  1.3960E-05
  15   3.5281E-07  1.8032E-06  8.6745E-06  3.1989E-05  7.8076E-05  9.3969E-05  7.8077E-05  3.1996E-05  8.7196E-06  2.1049E-06

 HEAD WILL BE SAVED ON UNIT 1043 AT END OF TIME STEP   10, STRESS PERIOD    2


  VOLUME BUDGET FOR ENTIRE MODEL AT END OF TIME STEP   10, STRESS PERIOD   2
  ---------------------------------------------------------------------------------------------------

     CUMULATIVE VOLUME      L**3       RATES FOR THIS TIME STEP      L**3/T          PACKAGE NAME    
     ------------------                 ------------------------                     ----------------

           IN:                                      IN:
           ---                                      ---
              STO-SS =           8.2496                STO-SS =       5.7372E-02     STORAGE                          
              STO-SY =       20912.8484                STO-SY =         163.9940     STORAGE                          
                 WEL =           0.0000                   WEL =           0.0000     WEL-1                            
                 API =       27000.0000                   API =         270.0000     MAR                              
                 CHD =       2.8247E-08                   CHD =           0.0000     CHD_0                            

            TOTAL IN =       47921.0980              TOTAL IN =         434.0513

          OUT:                                     OUT:
          ----                                     ----
              STO-SS =          10.8987                STO-SS =       8.6743E-02     STORAGE                          
              STO-SY =       20910.1994                STO-SY =         163.9646     STORAGE                          
                 WEL =       27000.0000                   WEL =         270.0000     WEL-1                            
                 API =           0.0000                   API =           0.0000     MAR                              
                 CHD =       3.0388E-08                   CHD =           0.0000     CHD_0                            

           TOTAL OUT =       47921.0980             TOTAL OUT =         434.0513

            IN - OUT =      -4.6188E-08              IN - OUT =      -1.5115E-10

 PERCENT DISCREPANCY =          -0.00     PERCENT DISCREPANCY =          -0.00




         TIME SUMMARY AT END OF TIME STEP   10 IN STRESS PERIOD    2
                    SECONDS     MINUTES      HOURS       DAYS        YEARS
                    -----------------------------------------------------------
   TIME STEP LENGTH 8.64000E+05  14400.      240.00      10.000     2.73785E-02
 STRESS PERIOD TIME 8.64000E+06 1.44000E+05  2400.0      100.00     0.27379    
         TOTAL TIME 8.72640E+06 1.45440E+05  2424.0      101.00     0.27652    


end timestep


start timestep kper="2" kstp="11" mode="normal"

 UBDSV1 SAVING           STO-SS ON UNIT   1042 AT TIME STEP     11, STRESS PERIOD      2
 UBDSV1 SAVING           STO-SY ON UNIT   1042 AT TIME STEP     11, STRESS PERIOD      2
 UBDSV1 SAVING     FLOW-JA-FACE ON UNIT   1042 AT TIME STEP     11, STRESS PERIOD      2
 UBDSV06 SAVING       DATA-SPDIS IN MODEL GWF              PACKAGE NPF             CONNECTED TO MODEL GWF              PACKAGE NPF              ON UNIT   1042 AT TIME STEP     11, STRESS PERIOD      2
 UBDSV06 SAVING              WEL IN MODEL GWF              PACKAGE GWF             CONNECTED TO MODEL GWF              PACKAGE WEL-1            ON UNIT   1042 AT TIME STEP     11, STRESS PERIOD      2
 UBDSV06 SAVING              API IN MODEL GWF              PACKAGE GWF             CONNECTED TO MODEL GWF              PACKAGE MAR              ON UNIT   1042 AT TIME STEP     11, STRESS PERIOD      2
 UBDSV06 SAVING              CHD IN MODEL GWF              PACKAGE GWF             CONNECTED TO MODEL GWF              PACKAGE CHD_0            ON UNIT   1042 AT TIME STEP     11, STRESS PERIOD      2

    CALCULATED INTERCELL FLOW FOR PERIOD 2 STEP 11
(1,1,1): (1,1,2) 2.605418E-05 (1,2,1) 3.291680E-05
(1,1,2): (1,1,1) -2.605418E-05 (1,1,3) 1.177799E-04 (1,2,2) 1.747475E-04
(1,1,3): (1,1,2) -1.177799E-04 (1,1,4) 3.803055E-04 (1,2,3) 8.737368E-04
(1,1,4): (1,1,3) -3.803055E-04 (1,1,5) 7.181060E-04 (1,2,4) 3.361358E-03
(1,1,5): (1,1,4) -7.181060E-04 (1,1,6) 2.553678E-04 (1,2,5) 8.547938E-03
(1,1,6): (1,1,5) -2.553678E-04 (1,1,7) -2.553529E-04 (1,2,6) 1.024732E-02
(1,1,7): (1,1,6) 2.553529E-04 (1,1,8) -7.179986E-04 (1,2,7) 8.547999E-03
(1,1,8): (1,1,7) 7.179986E-04 (1,1,9) -3.795383E-04 (1,2,8) 3.361880E-03
(1,1,9): (1,1,8) 3.795383E-04 (1,1,10) -1.129391E-04 (1,2,9) 8.778032E-04
(1,1,10): (1,1,9) 1.129391E-04 (1,2,10) 2.030094E-04
(1,2,1): (1,1,1) -3.291680E-05 (1,2,2) 1.678849E-04 (1,3,1) 1.860851E-04
(1,2,2): (1,1,2) -1.747475E-04 (1,2,1) -1.678849E-04 (1,2,3) 8.167688E-04 (1,3,2) 1.066575E-03
(1,2,3): (1,1,3) -8.737368E-04 (1,2,2) -8.167688E-04 (1,2,4) 2.867914E-03 (1,3,3) 5.762309E-03
(1,2,4): (1,1,4) -3.361358E-03 (1,2,3) -2.867914E-03 (1,2,5) 5.904550E-03 (1,3,4) 2.412234E-02
(1,2,5): (1,1,5) -8.547938E-03 (1,2,4) -5.904550E-03 (1,2,6) 1.954612E-03 (1,3,5) 6.667666E-02
(1,2,6): (1,1,6) -1.024732E-02 (1,2,5) -1.954612E-03 (1,2,7) -1.954536E-03 (1,3,6) 7.925405E-02
(1,2,7): (1,1,7) -8.547999E-03 (1,2,6) 1.954536E-03 (1,2,8) -5.903980E-03 (1,3,7) 6.667695E-02
(1,2,8): (1,1,8) -3.361880E-03 (1,2,7) 5.903980E-03 (1,2,9) -2.863603E-03 (1,3,8) 2.412499E-02
(1,2,9): (1,1,9) -8.778032E-04 (1,2,8) 2.863603E-03 (1,2,10) -7.877324E-04 (1,3,9) 5.784102E-03
(1,2,10): (1,1,10) -2.030094E-04 (1,2,9) 7.877324E-04 (1,3,10) 1.227929E-03
(1,3,1): (1,2,1) -1.860851E-04 (1,3,2) 1.048374E-03 (1,4,1) 8.222960E-04
(1,3,2): (1,2,2) -1.066575E-03 (1,3,1) -1.048374E-03 (1,3,3) 5.512491E-03 (1,4,2) 5.163419E-03
(1,3,3): (1,2,3) -5.762309E-03 (1,3,2) -5.512491E-03 (1,3,4) 2.122742E-02 (1,4,3) 3.070131E-02
(1,3,4): (1,2,4) -2.412234E-02 (1,3,3) -2.122742E-02 (1,3,5) 4.845112E-02 (1,4,4) 0.143561
(1,3,5): (1,2,5) -6.667666E-02 (1,3,4) -4.845112E-02 (1,3,6) 1.452388E-02 (1,4,5) 0.448130
(1,3,6): (1,2,6) -7.925405E-02 (1,3,5) -1.452388E-02 (1,3,7) -1.452351E-02 (1,4,6) 0.523652
(1,3,7): (1,2,7) -6.667695E-02 (1,3,6) 1.452351E-02 (1,3,8) -4.844820E-02 (1,4,7) 0.448132
(1,3,8): (1,2,8) -2.412499E-02 (1,3,7) 4.844820E-02 (1,3,9) -2.120396E-02 (1,4,8) 0.143572
(1,3,9): (1,2,9) -5.784102E-03 (1,3,8) 2.120396E-02 (1,3,10) -5.343885E-03 (1,4,9) 3.079174E-02
(1,3,10): (1,2,10) -1.227929E-03 (1,3,9) 5.343885E-03 (1,4,10) 5.884155E-03
(1,4,1): (1,3,1) -8.222960E-04 (1,4,2) 5.389507E-03 (1,5,1) 2.535714E-03
(1,4,2): (1,3,2) -5.163419E-03 (1,4,1) -5.389507E-03 (1,4,3) 3.105047E-02 (1,5,2) 1.779333E-02
(1,4,3): (1,3,3) -3.070131E-02 (1,4,2) -3.105047E-02 (1,4,4) 0.134077 (1,5,3) 0.119753
(1,4,4): (1,3,4) -0.143561 (1,4,3) -0.134077 (1,4,5) 0.352733 (1,5,4) 0.654688
(1,4,5): (1,3,5) -0.448130 (1,4,4) -0.352733 (1,4,6) 8.972324E-02 (1,5,5) 2.50625
(1,4,6): (1,3,6) -0.523652 (1,4,5) -8.972324E-02 (1,4,7) -8.972177E-02 (1,5,6) 2.82150
(1,4,7): (1,3,7) -0.448132 (1,4,6) 8.972177E-02 (1,4,8) -0.352721 (1,5,7) 2.50625
(1,4,8): (1,3,8) -0.143572 (1,4,7) 0.352721 (1,4,9) -0.133973 (1,5,8) 0.654715
(1,4,9): (1,3,9) -3.079174E-02 (1,4,8) 0.133973 (1,4,10) -3.025133E-02 (1,5,9) 0.120012
(1,4,10): (1,3,10) -5.884155E-03 (1,4,9) 3.025133E-02 (1,5,10) 2.004205E-02
(1,5,1): (1,4,1) -2.535714E-03 (1,5,2) 2.064755E-02 (1,6,1) 3.519003E-03
(1,5,2): (1,4,2) -1.779333E-02 (1,5,1) -2.064755E-02 (1,5,3) 0.133024 (1,6,2) 2.909891E-02
(1,5,3): (1,4,3) -0.119753 (1,5,2) -0.133024 (1,5,4) 0.669087 (1,6,3) 0.238512
(1,5,4): (1,4,4) -0.654688 (1,5,3) -0.669087 (1,5,5) 2.19897 (1,6,4) 1.72496
(1,5,5): (1,4,5) -2.50625 (1,5,4) -2.19897 (1,5,6) 0.398037 (1,6,5) 10.7431
(1,5,6): (1,4,6) -2.82150 (1,5,5) -0.398037 (1,5,7) -0.398033 (1,6,6) 10.9455
(1,5,7): (1,4,7) -2.50625 (1,5,6) 0.398033 (1,5,8) -2.19893 (1,6,7) 10.7431
(1,5,8): (1,4,8) -0.654715 (1,5,7) 2.19893 (1,5,9) -0.668750 (1,6,8) 1.72500
(1,5,9): (1,4,9) -0.120012 (1,5,8) 0.668750 (1,5,10) -0.130232 (1,6,9) 0.238835
(1,5,10): (1,4,10) -2.004205E-02 (1,5,9) 0.130232 (1,6,10) 3.226611E-02
(1,6,1): (1,5,1) -3.519003E-03 (1,6,2) 4.623184E-02 (1,7,1) -5.275143E-03
(1,6,2): (1,5,2) -2.909891E-02 (1,6,1) -4.623184E-02 (1,6,3) 0.342654 (1,7,2) -4.281273E-02
(1,6,3): (1,5,3) -0.238512 (1,6,2) -0.342654 (1,6,4) 2.16170 (1,7,3) -0.343192
(1,6,4): (1,5,4) -1.72496 (1,6,3) -2.16170 (1,6,5) 11.2527 (1,7,4) -2.41351
(1,6,5): (1,5,5) -10.7431 (1,6,4) -11.2527 (1,6,6) 0.588079 (1,7,5) -14.5563
(1,6,6): (1,5,6) -10.9455 (1,6,5) -0.588079 (1,6,7) -0.588071 (1,7,6) -24.0690
(1,6,7): (1,5,7) -10.7431 (1,6,6) 0.588071 (1,6,8) -11.2526 (1,7,7) -14.5563
(1,6,8): (1,5,8) -1.72500 (1,6,7) 11.2526 (1,6,9) -2.16106 (1,7,8) -2.41356
(1,6,9): (1,5,9) -0.238835 (1,6,8) 2.16106 (1,6,10) -0.337001 (1,7,9) -0.343681
(1,6,10): (1,5,10) -3.226611E-02 (1,6,9) 0.337001 (1,7,10) -4.755380E-02
(1,7,1): (1,6,1) 5.275143E-03 (1,7,2) 8.692968E-03 (1,8,1) -3.827548E-03
(1,7,2): (1,6,2) 4.281273E-02 (1,7,1) -8.692968E-03 (1,7,3) 4.227640E-02 (1,8,2) -3.082580E-02
(1,7,3): (1,6,3) 0.343192 (1,7,2) -4.227640E-02 (1,7,4) 9.632452E-02 (1,8,3) -0.246213
(1,7,4): (1,6,4) 2.41351 (1,7,3) -9.632452E-02 (1,7,5) -0.582693 (1,8,4) -1.73555
(1,7,5): (1,6,5) 14.5563 (1,7,4) 0.582693 (1,7,6) -7.80262 (1,8,5) -10.5242
(1,7,6): (1,6,6) 24.0690 (1,7,5) 7.80262 (1,7,7) 7.80263 (1,8,6) -53.9600
(1,7,7): (1,6,7) 14.5563 (1,7,6) -7.80263 (1,7,8) 0.582715 (1,8,7) -10.5242
(1,7,8): (1,6,8) 2.41356 (1,7,7) -0.582715 (1,7,9) -9.613955E-02 (1,8,8) -1.73558
(1,7,9): (1,6,9) 0.343681 (1,7,8) 9.613955E-02 (1,7,10) -4.089367E-02 (1,8,9) -0.246569
(1,7,10): (1,6,10) 4.755380E-02 (1,7,9) 4.089367E-02 (1,8,10) -3.426114E-02
(1,8,1): (1,7,1) 3.827548E-03 (1,8,2) -1.830266E-02 (1,9,1) 3.567378E-03
(1,8,2): (1,7,2) 3.082580E-02 (1,8,1) 1.830266E-02 (1,8,3) -0.172971 (1,9,2) 2.904931E-02
(1,8,3): (1,7,3) 0.246213 (1,8,2) 0.172971 (1,8,4) -1.38801 (1,9,3) 0.234581
(1,8,4): (1,7,4) 1.73555 (1,8,3) 1.38801 (1,8,5) -9.26965 (1,9,4) 1.67338
(1,8,5): (1,7,5) 10.5242 (1,8,4) 9.26965 (1,8,6) -49.9193 (1,9,5) 10.2786
(1,8,6): (1,7,6) 53.9600 (1,8,5) 49.9193 (1,8,7) 49.9193 (1,9,6) 53.5589
(1,8,7): (1,7,7) 10.5242 (1,8,6) -49.9193 (1,8,8) 9.26964 (1,9,7) 10.2786
(1,8,8): (1,7,8) 1.73558 (1,8,7) -9.26964 (1,8,9) 1.38787 (1,9,8) 1.67341
(1,8,9): (1,7,9) 0.246569 (1,8,8) -1.38787 (1,8,10) 0.171271 (1,9,9) 0.234910
(1,8,10): (1,7,10) 3.426114E-02 (1,8,9) -0.171271 (1,9,10) 3.225451E-02
(1,9,1): (1,8,1) -3.567378E-03 (1,9,2) 7.177054E-03 (1,10,1) 4.960238E-03
(1,9,2): (1,8,2) -2.904931E-02 (1,9,1) -7.177054E-03 (1,9,3) 3.244525E-02 (1,10,2) 4.026952E-02
(1,9,3): (1,8,3) -0.234581 (1,9,2) -3.244525E-02 (1,9,4) 4.676198E-02 (1,10,3) 0.322769
(1,9,4): (1,8,4) -1.67338 (1,9,3) -4.676198E-02 (1,9,5) -0.744871 (1,10,4) 2.26898
(1,9,5): (1,8,5) -10.2786 (1,9,4) 0.744871 (1,9,6) -7.82824 (1,10,5) 13.6764
(1,9,6): (1,8,6) -53.5589 (1,9,5) 7.82824 (1,9,7) 7.82824 (1,10,6) 23.0011
(1,9,7): (1,8,7) -10.2786 (1,9,6) -7.82824 (1,9,8) 0.744890 (1,10,7) 13.6764
(1,9,8): (1,8,8) -1.67341 (1,9,7) -0.744890 (1,9,9) -4.660123E-02 (1,10,8) 2.26903
(1,9,9): (1,8,9) -0.234910 (1,9,8) 4.660123E-02 (1,9,10) -3.126566E-02 (1,10,9) 0.323229
(1,9,10): (1,8,10) -3.225451E-02 (1,9,9) 3.126566E-02 (1,10,10) 4.472770E-02
(1,10,1): (1,9,1) -4.960238E-03 (1,10,2) 4.248712E-02 (1,11,1) -3.222166E-03
(1,10,2): (1,9,2) -4.026952E-02 (1,10,1) -4.248712E-02 (1,10,3) 0.314923 (1,11,2) -2.666579E-02
(1,10,3): (1,9,3) -0.322769 (1,10,2) -0.314923 (1,10,4) 1.98776 (1,11,3) -0.218776
(1,10,4): (1,9,4) -2.26898 (1,10,3) -1.98776 (1,10,5) 10.3707 (1,11,4) -1.58472
(1,10,5): (1,9,5) -13.6764 (1,10,4) -10.3707 (1,10,6) 0.449937 (1,11,5) -9.89885
(1,10,6): (1,9,6) -23.0011 (1,10,5) -0.449937 (1,10,7) -0.449930 (1,11,6) -9.99920
(1,10,7): (1,9,7) -13.6764 (1,10,6) 0.449930 (1,10,8) -10.3707 (1,11,7) -9.89885
(1,10,8): (1,9,8) -2.26903 (1,10,7) 10.3707 (1,10,9) -1.98718 (1,11,8) -1.58475
(1,10,9): (1,9,9) -0.323229 (1,10,8) 1.98718 (1,10,10) -0.309730 (1,11,9) -0.219071
(1,10,10): (1,9,10) -4.472770E-02 (1,10,9) 0.309730 (1,11,10) -2.956593E-02
(1,11,1): (1,10,1) 3.222166E-03 (1,11,2) 1.903979E-02 (1,12,1) -2.337625E-03
(1,11,2): (1,10,2) 2.666579E-02 (1,11,1) -1.903979E-02 (1,11,3) 0.122630 (1,12,2) -1.640107E-02
(1,11,3): (1,10,3) 0.218776 (1,11,2) -0.122630 (1,11,4) 0.616574 (1,12,3) -0.110361
(1,11,4): (1,10,4) 1.58472 (1,11,3) -0.616574 (1,11,5) 2.02566 (1,12,4) -0.603186
(1,11,5): (1,10,5) 9.89885 (1,11,4) -2.02566 (1,11,6) 0.354515 (1,12,5) -2.30830
(1,11,6): (1,10,6) 9.99920 (1,11,5) -0.354515 (1,11,7) -0.354511 (1,12,6) -2.58718
(1,11,7): (1,10,7) 9.89885 (1,11,6) 0.354511 (1,11,8) -2.02562 (1,12,7) -2.30830
(1,11,8): (1,10,8) 1.58475 (1,11,7) 2.02562 (1,11,9) -0.616263 (1,12,8) -0.603211
(1,11,9): (1,10,9) 0.219071 (1,11,8) 0.616263 (1,11,10) -0.120055 (1,12,9) -0.110600
(1,11,10): (1,10,10) 2.956593E-02 (1,11,9) 0.120055 (1,12,10) -1.847405E-02
(1,12,1): (1,11,1) 2.337625E-03 (1,12,2) 4.975977E-03 (1,13,1) -7.592809E-04
(1,12,2): (1,11,2) 1.640107E-02 (1,12,1) -4.975977E-03 (1,12,3) 2.865839E-02 (1,13,2) -4.766654E-03
(1,12,3): (1,11,3) 0.110361 (1,12,2) -2.865839E-02 (1,12,4) 0.123684 (1,13,3) -2.833355E-02
(1,12,4): (1,11,4) 0.603186 (1,12,3) -0.123684 (1,12,5) 0.325083 (1,13,4) -0.132430
(1,12,5): (1,11,5) 2.30830 (1,12,4) -0.325083 (1,12,6) 8.132758E-02 (1,13,5) -0.413072
(1,12,6): (1,11,6) 2.58718 (1,12,5) -8.132758E-02 (1,12,7) -8.132623E-02 (1,13,6) -0.481408
(1,12,7): (1,11,7) 2.30830 (1,12,6) 8.132623E-02 (1,12,8) -0.325072 (1,13,7) -0.413073
(1,12,8): (1,11,8) 0.603211 (1,12,7) 0.325072 (1,12,9) -0.123588 (1,13,8) -0.132440
(1,12,9): (1,11,9) 0.110600 (1,12,8) 0.123588 (1,12,10) -2.792041E-02 (1,13,9) -2.841705E-02
(1,12,10): (1,11,10) 1.847405E-02 (1,12,9) 2.792041E-02 (1,13,10) -5.432134E-03
(1,13,1): (1,12,1) 7.592809E-04 (1,13,2) 9.685957E-04 (1,14,1) -1.719574E-04
(1,13,2): (1,12,2) 4.766654E-03 (1,13,1) -9.685957E-04 (1,13,3) 5.091416E-03 (1,14,2) -9.853755E-04
(1,13,3): (1,12,3) 2.833355E-02 (1,13,2) -5.091416E-03 (1,13,4) 1.959627E-02 (1,14,3) -5.322056E-03
(1,13,4): (1,12,4) 0.132430 (1,13,3) -1.959627E-02 (1,13,5) 4.468525E-02 (1,14,4) -2.226981E-02
(1,13,5): (1,12,5) 0.413072 (1,13,4) -4.468525E-02 (1,13,6) 1.326114E-02 (1,14,5) -6.151255E-02
(1,13,6): (1,12,6) 0.481408 (1,13,5) -1.326114E-02 (1,13,7) -1.326079E-02 (1,14,6) -7.298875E-02
(1,13,7): (1,12,7) 0.413073 (1,13,6) 1.326079E-02 (1,13,8) -4.468255E-02 (1,14,7) -6.151282E-02
(1,13,8): (1,12,8) 0.132440 (1,13,7) 4.468255E-02 (1,13,9) -1.957458E-02 (1,14,8) -2.227226E-02
(1,13,9): (1,12,9) 2.841705E-02 (1,13,8) 1.957458E-02 (1,13,10) -4.935604E-03 (1,14,9) -5.342195E-03
(1,13,10): (1,12,10) 5.432134E-03 (1,13,9) 4.935604E-03 (1,14,10) -1.134475E-03
(1,14,1): (1,13,1) 1.719574E-04 (1,14,2) 1.551777E-04 (1,15,1) -3.043186E-05
(1,14,2): (1,13,2) 9.853755E-04 (1,14,1) -1.551777E-04 (1,14,3) 7.547452E-04 (1,15,2) -1.615214E-04
(1,14,3): (1,13,3) 5.322056E-03 (1,14,2) -7.547452E-04 (1,14,4) 2.648966E-03 (1,15,3) -8.073916E-04
(1,14,4): (1,13,4) 2.226981E-02 (1,14,3) -2.648966E-03 (1,14,5) 5.449103E-03 (1,15,4) -3.104944E-03
(1,14,5): (1,13,5) 6.151255E-02 (1,14,4) -5.449103E-03 (1,14,6) 1.791779E-03 (1,15,5) -7.891084E-03
(1,14,6): (1,13,6) 7.298875E-02 (1,14,5) -1.791779E-03 (1,14,7) -1.791707E-03 (1,15,6) -9.448281E-03
(1,14,7): (1,13,7) 6.151282E-02 (1,14,6) 1.791707E-03 (1,14,8) -5.448575E-03 (1,15,7) -7.891140E-03
(1,14,8): (1,13,8) 2.227226E-02 (1,14,7) 5.448575E-03 (1,14,9) -2.644979E-03 (1,15,8) -3.105427E-03
(1,14,9): (1,13,9) 5.342195E-03 (1,14,8) 2.644979E-03 (1,14,10) -7.279009E-04 (1,15,9) -8.111512E-04
(1,14,10): (1,13,10) 1.134475E-03 (1,14,9) 7.279009E-04 (1,15,10) -1.876488E-04
(1,15,1): (1,14,1) 3.043186E-05 (1,15,2) 2.408820E-05
(1,15,2): (1,14,2) 1.615214E-04 (1,15,1) -2.408820E-05 (1,15,3) 1.088753E-04
(1,15,3): (1,14,3) 8.073916E-04 (1,15,2) -1.088753E-04 (1,15,4) 3.514244E-04
(1,15,4): (1,14,4) 3.104944E-03 (1,15,3) -3.514244E-04 (1,15,5) 6.630798E-04
(1,15,5): (1,14,5) 7.891084E-03 (1,15,4) -6.630798E-04 (1,15,6) 2.347008E-04
(1,15,6): (1,14,6) 9.448281E-03 (1,15,5) -2.347008E-04 (1,15,7) -2.346855E-04
(1,15,7): (1,14,7) 7.891140E-03 (1,15,6) 2.346855E-04 (1,15,8) -6.629791E-04
(1,15,8): (1,14,8) 3.105427E-03 (1,15,7) 6.629791E-04 (1,15,9) -3.507140E-04
(1,15,9): (1,14,9) 8.111512E-04 (1,15,8) 3.507140E-04 (1,15,10) -1.043990E-04
(1,15,10): (1,14,10) 1.876488E-04 (1,15,9) 1.043990E-04

 WEL PACKAGE (WEL-1) FLOW RATES   PERIOD      2   STEP       11
 ----------------------------------------------------------------------------------------
   NUMBER   CELLID                    RATE       NAME                                    
 ----------------------------------------------------------------------------------------
     1      (1,8,6)              -270.00000      WEL                                     
 ----------------------------------------------------------------------------------------




 API PACKAGE (MAR) FLOW RATES   PERIOD      2   STEP       11
 -----------------------------------------------
   NUMBER   CELLID                    RATE      
 -----------------------------------------------
     1      (1,6,5)               46.666667     
     2      (1,6,6)               46.666667     
     3      (1,6,7)               46.666667     
     4      (1,10,5)              43.333333     
     5      (1,10,6)              43.333333     
     6      (1,10,7)              43.333333     
 -----------------------------------------------



1
  HEAD IN LAYER   1 AT END OF TIME STEP  11 IN STRESS PERIOD    2
  ---------------------------------------------------------------------------

            1           2           3           4           5           6           7           8           9          10
 ........................................................................................................................
   1   6.7628E-07  3.2817E-06  1.5060E-05  5.3090E-05  1.2490E-04  1.5044E-04  1.2490E-04  5.3102E-05  1.5149E-05  3.8547E-06
   2   3.9680E-06  2.0756E-05  1.0243E-04  3.8921E-04  9.7961E-04  1.1750E-03  9.7962E-04  3.8928E-04  1.0293E-04  2.4156E-05
   3   2.2576E-05  1.2741E-04  6.7862E-04  2.8008E-03  7.6422E-03  9.0933E-03  7.6422E-03  2.8011E-03  6.8130E-04  1.4695E-04
   4   1.0481E-04  6.4372E-04  3.7476E-03  1.7132E-02  5.2222E-02  6.1140E-02  5.2223E-02  1.7134E-02  3.7593E-03  7.3532E-04
   5   3.5837E-04  2.4226E-03  1.5704E-02  8.2068E-02  0.2957      0.3342      0.2957      8.2072E-02  1.5742E-02  2.7390E-03
   6   7.1024E-04  5.3310E-03  3.9462E-02  0.2504       1.251       1.303       1.251      0.2504      3.9531E-02  5.9637E-03
   7   1.8277E-04  1.0520E-03  5.2774E-03  1.4896E-02 -4.3287E-02 -0.8269     -4.3287E-02  1.4898E-02  5.2983E-03  1.2111E-03
   8  -1.9998E-04 -2.0303E-03 -1.9331E-02 -0.1584      -1.100      -6.709      -1.100     -0.1584     -1.9346E-02 -2.2146E-03
   9   1.5675E-04  8.7439E-04  4.1176E-03  8.7897E-03 -6.5632E-02 -0.8536     -6.5632E-02  8.7918E-03  4.1358E-03  1.0105E-03
  10   6.5274E-04  4.8994E-03  3.6278E-02  0.2306       1.160       1.200       1.160      0.2306      3.6342E-02  5.4809E-03
  11   3.3055E-04  2.2341E-03  1.4479E-02  7.5674E-02  0.2729      0.3073      0.2729      7.5677E-02  1.4514E-02  2.5259E-03
  12   9.6792E-05  5.9436E-04  3.4592E-03  1.5808E-02  4.8161E-02  5.6248E-02  4.8161E-02  1.5809E-02  3.4700E-03  6.7895E-04
  13   2.0864E-05  1.1772E-04  6.2683E-04  2.5860E-03  7.0513E-03  8.3763E-03  7.0514E-03  2.5863E-03  6.2930E-04  1.3578E-04
  14   3.6685E-06  1.9186E-05  9.4660E-05  3.5955E-04  9.0441E-04  1.0836E-03  9.0442E-04  3.5961E-04  9.5119E-05  2.2329E-05
  15   6.2527E-07  3.0341E-06  1.3922E-05  4.9064E-05  1.1537E-04  1.3884E-04  1.1537E-04  4.9075E-05  1.4004E-05  3.5644E-06

 HEAD WILL BE SAVED ON UNIT 1043 AT END OF TIME STEP   11, STRESS PERIOD    2


  VOLUME BUDGET FOR ENTIRE MODEL AT END OF TIME STEP   11, STRESS PERIOD   2
  ---------------------------------------------------------------------------------------------------

     CUMULATIVE VOLUME      L**3       RATES FOR THIS TIME STEP      L**3/T          PACKAGE NAME    
     ------------------                 ------------------------                     ----------------

           IN:                                      IN:
           ---                                      ---
              STO-SS =           8.7920                STO-SS =       5.4241E-02     STORAGE                          
              STO-SY =       22475.1988                STO-SY =         156.2350     STORAGE                          
                 WEL =           0.0000                   WEL =           0.0000     WEL-1                            
                 API =       29700.0000                   API =         270.0000     MAR                              
                 CHD =       2.8247E-08                   CHD =           0.0000     CHD_0                            

            TOTAL IN =       52183.9908              TOTAL IN =         426.2893

          OUT:                                     OUT:
          ----                                     ----
              STO-SS =          11.7246                STO-SS =       8.2590E-02     STORAGE                          
              STO-SY =       22472.2663                STO-SY =         156.2067     STORAGE                          
                 WEL =       29700.0000                   WEL =         270.0000     WEL-1                            
                 API =           0.0000                   API =           0.0000     MAR                              
                 CHD =       3.0388E-08                   CHD =           0.0000     CHD_0                            

           TOTAL OUT =       52183.9908             TOTAL OUT =         426.2893

            IN - OUT =      -4.7243E-08              IN - OUT =      -1.0425E-10

 PERCENT DISCREPANCY =          -0.00     PERCENT DISCREPANCY =          -0.00




         TIME SUMMARY AT END OF TIME STEP   11 IN STRESS PERIOD    2
                    SECONDS     MINUTES      HOURS       DAYS        YEARS
                    -----------------------------------------------------------
   TIME STEP LENGTH 8.64000E+05  14400.      240.00      10.000     2.73785E-02
 STRESS PERIOD TIME 9.50400E+06 1.58400E+05  2640.0      110.00     0.30116    
         TOTAL TIME 9.59040E+06 1.59840E+05  2664.0      111.00     0.30390    


end timestep


start timestep kper="2" kstp="12" mode="normal"

 UBDSV1 SAVING           STO-SS ON UNIT   1042 AT TIME STEP     12, STRESS PERIOD      2
 UBDSV1 SAVING           STO-SY ON UNIT   1042 AT TIME STEP     12, STRESS PERIOD      2
 UBDSV1 SAVING     FLOW-JA-FACE ON UNIT   1042 AT TIME STEP     12, STRESS PERIOD      2
 UBDSV06 SAVING       DATA-SPDIS IN MODEL GWF              PACKAGE NPF             CONNECTED TO MODEL GWF              PACKAGE NPF              ON UNIT   1042 AT TIME STEP     12, STRESS PERIOD      2
 UBDSV06 SAVING              WEL IN MODEL GWF              PACKAGE GWF             CONNECTED TO MODEL GWF              PACKAGE WEL-1            ON UNIT   1042 AT TIME STEP     12, STRESS PERIOD      2
 UBDSV06 SAVING              API IN MODEL GWF              PACKAGE GWF             CONNECTED TO MODEL GWF              PACKAGE MAR              ON UNIT   1042 AT TIME STEP     12, STRESS PERIOD      2
 UBDSV06 SAVING              CHD IN MODEL GWF              PACKAGE GWF             CONNECTED TO MODEL GWF              PACKAGE CHD_0            ON UNIT   1042 AT TIME STEP     12, STRESS PERIOD      2

    CALCULATED INTERCELL FLOW FOR PERIOD 2 STEP 12
(1,1,1): (1,1,2) 4.145452E-05 (1,2,1) 5.235843E-05
(1,1,2): (1,1,1) -4.145452E-05 (1,1,3) 1.793311E-04 (1,2,2) 2.640974E-04
(1,1,3): (1,1,2) -1.793311E-04 (1,1,4) 5.526809E-04 (1,2,3) 1.260261E-03
(1,1,4): (1,1,3) -5.526809E-04 (1,1,5) 9.998467E-04 (1,2,4) 4.635633E-03
(1,1,5): (1,1,4) -9.998467E-04 (1,1,6) 3.637694E-04 (1,2,5) 1.135634E-02
(1,1,6): (1,1,5) -3.637694E-04 (1,1,7) -3.637407E-04 (1,2,6) 1.361681E-02
(1,1,7): (1,1,6) 3.637407E-04 (1,1,8) -9.996510E-04 (1,2,7) 1.135644E-02
(1,1,8): (1,1,7) 9.996510E-04 (1,1,9) -5.513438E-04 (1,2,8) 4.636536E-03
(1,1,9): (1,1,8) 5.513438E-04 (1,1,10) -1.712639E-04 (1,2,9) 1.266978E-03
(1,1,10): (1,1,9) 1.712639E-04 (1,2,10) 3.087182E-04
(1,2,1): (1,1,1) -5.235843E-05 (1,2,2) 2.531934E-04 (1,3,1) 2.820049E-04
(1,2,2): (1,1,2) -2.640974E-04 (1,2,1) -2.531934E-04 (1,2,3) 1.175494E-03 (1,3,2) 1.531653E-03
(1,2,3): (1,1,3) -1.260261E-03 (1,2,2) -1.175494E-03 (1,2,4) 3.928030E-03 (1,3,3) 7.875489E-03
(1,2,4): (1,1,4) -4.635633E-03 (1,2,3) -3.928030E-03 (1,2,5) 7.720304E-03 (1,3,4) 3.142204E-02
(1,2,5): (1,1,5) -1.135634E-02 (1,2,4) -7.720304E-03 (1,2,6) 2.623993E-03 (1,3,5) 8.335589E-02
(1,2,6): (1,1,6) -1.361681E-02 (1,2,5) -2.623993E-03 (1,2,7) -2.623855E-03 (1,3,6) 9.915854E-02
(1,2,7): (1,1,7) -1.135644E-02 (1,2,6) 2.623855E-03 (1,2,8) -7.719316E-03 (1,3,7) 8.335640E-02
(1,2,8): (1,1,8) -4.636536E-03 (1,2,7) 7.719316E-03 (1,2,9) -3.920878E-03 (1,3,8) 3.142642E-02
(1,2,9): (1,1,9) -1.266978E-03 (1,2,8) 3.920878E-03 (1,2,10) -1.129522E-03 (1,3,9) 7.909877E-03
(1,2,10): (1,1,10) -3.087182E-04 (1,2,9) 1.129522E-03 (1,3,10) 1.774400E-03
(1,3,1): (1,2,1) -2.820049E-04 (1,3,2) 1.502841E-03 (1,4,1) 1.181349E-03
(1,3,2): (1,2,2) -1.531653E-03 (1,3,1) -1.502841E-03 (1,3,3) 7.519307E-03 (1,4,2) 7.010977E-03
(1,3,3): (1,2,3) -7.875489E-03 (1,3,2) -7.519307E-03 (1,3,4) 2.747365E-02 (1,4,3) 3.956675E-02
(1,3,4): (1,2,4) -3.142204E-02 (1,3,3) -2.747365E-02 (1,3,5) 5.964187E-02 (1,4,4) 0.175803
(1,3,5): (1,2,5) -8.335589E-02 (1,3,4) -5.964187E-02 (1,3,6) 1.841393E-02 (1,4,5) 0.524651
(1,3,6): (1,2,6) -9.915854E-02 (1,3,5) -1.841393E-02 (1,3,7) -1.841328E-02 (1,4,6) 0.613735
(1,3,7): (1,2,7) -8.335640E-02 (1,3,6) 1.841328E-02 (1,3,8) -5.963701E-02 (1,4,7) 0.524653
(1,3,8): (1,2,8) -3.142642E-02 (1,3,7) 5.963701E-02 (1,3,9) -2.743648E-02 (1,4,8) 0.175819
(1,3,9): (1,2,9) -7.909877E-03 (1,3,8) 2.743648E-02 (1,3,10) -7.264960E-03 (1,4,9) 3.970241E-02
(1,3,10): (1,2,10) -1.774400E-03 (1,3,9) 7.264960E-03 (1,4,10) 8.039128E-03
(1,4,1): (1,3,1) -1.181349E-03 (1,4,2) 7.332488E-03 (1,5,1) 3.435506E-03
(1,4,2): (1,3,2) -7.010977E-03 (1,4,1) -7.332488E-03 (1,4,3) 4.007524E-02 (1,5,2) 2.272789E-02
(1,4,3): (1,3,3) -3.956675E-02 (1,4,2) -4.007524E-02 (1,4,4) 0.163694 (1,5,3) 0.144835
(1,4,4): (1,3,4) -0.175803 (1,4,3) -0.163694 (1,4,5) 0.408089 (1,5,4) 0.750580
(1,4,5): (1,3,5) -0.524651 (1,4,4) -0.408089 (1,4,6) 0.107055 (1,5,5) 2.73906
(1,4,6): (1,3,6) -0.613735 (1,4,5) -0.107055 (1,4,7) -0.107053 (1,5,6) 3.08354
(1,4,7): (1,3,7) -0.524653 (1,4,6) 0.107053 (1,4,8) -0.408070 (1,5,7) 2.73906
(1,4,8): (1,3,8) -0.175819 (1,4,7) 0.408070 (1,4,9) -0.163537 (1,5,8) 0.750622
(1,4,9): (1,3,9) -3.970241E-02 (1,4,8) 0.163537 (1,4,10) -3.892800E-02 (1,5,9) 0.145202
(1,4,10): (1,3,10) -8.039128E-03 (1,4,9) 3.892800E-02 (1,5,10) 2.575415E-02
(1,5,1): (1,4,1) -3.435506E-03 (1,5,2) 2.662563E-02 (1,6,1) 4.399784E-03
(1,5,2): (1,4,2) -2.272789E-02 (1,5,1) -2.662563E-02 (1,5,3) 0.162203 (1,6,2) 3.429359E-02
(1,5,3): (1,4,3) -0.144835 (1,5,2) -0.162203 (1,5,4) 0.769552 (1,6,3) 0.266410
(1,5,4): (1,4,4) -0.750580 (1,5,3) -0.769552 (1,5,5) 2.39012 (1,6,4) 1.83246
(1,5,5): (1,4,5) -2.73906 (1,5,4) -2.39012 (1,5,6) 0.443356 (1,6,5) 10.9624
(1,5,6): (1,4,6) -3.08354 (1,5,5) -0.443356 (1,5,7) -0.443349 (1,6,6) 11.0949
(1,5,7): (1,4,7) -2.73906 (1,5,6) 0.443349 (1,5,8) -2.39006 (1,6,7) 10.9624
(1,5,8): (1,4,8) -0.750622 (1,5,7) 2.39006 (1,5,9) -0.769066 (1,6,8) 1.83250
(1,5,9): (1,4,9) -0.145202 (1,5,8) 0.769066 (1,5,10) -0.158392 (1,6,9) 0.266833
(1,5,10): (1,4,10) -2.575415E-02 (1,5,9) 0.158392 (1,6,10) 3.822956E-02
(1,6,1): (1,5,1) -4.399784E-03 (1,6,2) 5.652607E-02 (1,7,1) -6.915177E-03
(1,6,2): (1,5,2) -3.429359E-02 (1,6,1) -5.652607E-02 (1,6,3) 0.394614 (1,7,2) -5.284700E-02
(1,6,3): (1,5,3) -0.266410 (1,6,2) -0.394614 (1,6,4) 2.34315 (1,7,3) -0.400547
(1,6,4): (1,5,4) -1.83246 (1,6,3) -2.34315 (1,6,5) 11.5621 (1,7,4) -2.66760
(1,6,5): (1,5,5) -10.9624 (1,6,4) -11.5621 (1,6,6) 0.568998 (1,7,5) -15.3416
(1,6,6): (1,5,6) -11.0949 (1,6,5) -0.568998 (1,6,7) -0.568986 (1,7,6) -25.4419
(1,6,7): (1,5,7) -10.9624 (1,6,6) 0.568986 (1,6,8) -11.5620 (1,7,7) -15.3416
(1,6,8): (1,5,8) -1.83250 (1,6,7) 11.5620 (1,6,9) -2.34227 (1,7,8) -2.66767
(1,6,9): (1,5,9) -0.266833 (1,6,8) 2.34227 (1,6,10) -0.387268 (1,7,9) -0.401221
(1,6,10): (1,5,10) -3.822956E-02 (1,6,9) 0.387268 (1,7,10) -5.902426E-02
(1,7,1): (1,6,1) 6.915177E-03 (1,7,2) 1.059255E-02 (1,8,1) -5.108281E-03
(1,7,2): (1,6,2) 5.284700E-02 (1,7,1) -1.059255E-02 (1,7,3) 4.693460E-02 (1,8,2) -3.878822E-02
(1,7,3): (1,6,3) 0.400547 (1,7,2) -4.693460E-02 (1,7,4) 8.303490E-02 (1,8,3) -0.293152
(1,7,4): (1,6,4) 2.66760 (1,7,3) -8.303490E-02 (1,7,5) -0.750102 (1,8,4) -1.95640
(1,7,5): (1,6,5) 15.3416 (1,7,4) 0.750102 (1,7,6) -8.28890 (1,8,5) -11.2705
(1,7,6): (1,6,6) 25.4419 (1,7,5) 8.28890 (1,7,7) 8.28890 (1,8,6) -55.5500
(1,7,7): (1,6,7) 15.3416 (1,7,6) -8.28890 (1,7,8) 0.750135 (1,8,7) -11.2705
(1,7,8): (1,6,8) 2.66767 (1,7,7) -0.750135 (1,7,9) -8.277558E-02 (1,8,8) -1.95645
(1,7,9): (1,6,9) 0.401221 (1,7,8) 8.277558E-02 (1,7,10) -4.511856E-02 (1,8,9) -0.293650
(1,7,10): (1,6,10) 5.902426E-02 (1,7,9) 4.511856E-02 (1,8,10) -4.334532E-02
(1,8,1): (1,7,1) 5.108281E-03 (1,8,2) -2.308322E-02 (1,9,1) 4.747988E-03
(1,8,2): (1,7,2) 3.878822E-02 (1,8,1) 2.308322E-02 (1,8,3) -0.207234 (1,9,2) 3.647101E-02
(1,8,3): (1,7,3) 0.293152 (1,8,2) 0.207234 (1,8,4) -1.57404 (1,9,3) 0.278804
(1,8,4): (1,7,4) 1.95640 (1,8,3) 1.57404 (1,8,5) -9.95118 (1,9,4) 1.88374
(1,8,5): (1,7,5) 11.2705 (1,8,4) 9.95118 (1,8,6) -51.0784 (1,9,5) 10.9967
(1,8,6): (1,7,6) 55.5500 (1,8,5) 51.0784 (1,8,7) 51.0784 (1,9,6) 55.0990
(1,8,7): (1,7,7) 11.2705 (1,8,6) -51.0784 (1,8,8) 9.95116 (1,9,7) 10.9967
(1,8,8): (1,7,8) 1.95645 (1,8,7) -9.95116 (1,8,9) 1.57385 (1,9,8) 1.88379
(1,8,9): (1,7,9) 0.293650 (1,8,8) -1.57385 (1,8,10) 0.204986 (1,9,9) 0.279262
(1,8,10): (1,7,10) 4.334532E-02 (1,8,9) -0.204986 (1,9,10) 4.071158E-02
(1,9,1): (1,8,1) -4.747988E-03 (1,9,2) 8.636306E-03 (1,10,1) 6.507888E-03
(1,9,2): (1,8,2) -3.647101E-02 (1,9,1) -8.636306E-03 (1,9,3) 3.493837E-02 (1,10,2) 4.975885E-02
(1,9,3): (1,8,3) -0.278804 (1,9,2) -3.493837E-02 (1,9,4) 2.602092E-02 (1,10,3) 0.377147
(1,9,4): (1,8,4) -1.88374 (1,9,3) -2.602092E-02 (1,9,5) -0.926362 (1,10,4) 2.51097
(1,9,5): (1,8,5) -10.9967 (1,9,4) 0.926362 (1,9,6) -8.31704 (1,10,5) 14.4307
(1,9,6): (1,8,6) -55.0990 (1,9,5) 8.31704 (1,9,7) 8.31705 (1,10,6) 24.3293
(1,9,7): (1,8,7) -10.9967 (1,9,6) -8.31705 (1,9,8) 0.926391 (1,10,7) 14.4307
(1,9,8): (1,8,8) -1.88379 (1,9,7) -0.926391 (1,9,9) -2.579651E-02 (1,10,8) 2.51104
(1,9,9): (1,8,9) -0.279262 (1,9,8) 2.579651E-02 (1,9,10) -3.339968E-02 (1,10,9) 0.377780
(1,9,10): (1,8,10) -4.071158E-02 (1,9,9) 3.339968E-02 (1,10,10) 5.557256E-02
(1,10,1): (1,9,1) -6.507888E-03 (1,10,2) 5.188819E-02 (1,11,1) -4.020295E-03
(1,10,2): (1,9,2) -4.975885E-02 (1,10,1) -5.188819E-02 (1,10,3) 0.362278 (1,11,2) -3.136622E-02
(1,10,3): (1,9,3) -0.377147 (1,10,2) -0.362278 (1,10,4) 2.15260 (1,11,3) -0.243964
(1,10,4): (1,9,4) -2.51097 (1,10,3) -2.15260 (1,10,5) 10.6499 (1,11,4) -1.68144
(1,10,5): (1,9,5) -14.4307 (1,10,4) -10.6499 (1,10,6) 0.421260 (1,11,5) -10.0943
(1,10,6): (1,9,6) -24.3293 (1,10,5) -0.421260 (1,10,7) -0.421249 (1,11,6) -10.1211
(1,10,7): (1,9,7) -14.4307 (1,10,6) 0.421249 (1,10,8) -10.6498 (1,11,7) -10.0943
(1,10,8): (1,9,8) -2.51104 (1,10,7) 10.6498 (1,10,9) -2.15179 (1,11,8) -1.68148
(1,10,9): (1,9,9) -0.377780 (1,10,8) 2.15179 (1,10,10) -0.355536 (1,11,9) -0.244350
(1,10,10): (1,9,10) -5.557256E-02 (1,10,9) 0.355536 (1,11,10) -3.496287E-02
(1,11,1): (1,10,1) 4.020295E-03 (1,11,2) 2.453665E-02 (1,12,1) -3.164824E-03
(1,11,2): (1,10,2) 3.136622E-02 (1,11,1) -2.453665E-02 (1,11,3) 0.149431 (1,12,2) -2.093416E-02
(1,11,3): (1,10,3) 0.243964 (1,11,2) -0.149431 (1,11,4) 0.708698 (1,12,3) -0.133378
(1,11,4): (1,10,4) 1.68144 (1,11,3) -0.708698 (1,11,5) 2.20044 (1,12,4) -0.691056
(1,11,5): (1,10,5) 10.0943 (1,11,4) -2.20044 (1,11,6) 0.393954 (1,12,5) -2.52111
(1,11,6): (1,10,6) 10.1211 (1,11,5) -0.393954 (1,11,7) -0.393948 (1,12,6) -2.82483
(1,11,7): (1,10,7) 10.0943 (1,11,6) 0.393948 (1,11,8) -2.20039 (1,12,7) -2.52111
(1,11,8): (1,10,8) 1.68148 (1,11,7) 2.20039 (1,11,9) -0.708251 (1,12,8) -0.691094
(1,11,9): (1,10,9) 0.244350 (1,11,8) 0.708251 (1,11,10) -0.145918 (1,12,9) -0.133716
(1,11,10): (1,10,10) 3.496287E-02 (1,11,9) 0.145918 (1,12,10) -2.372186E-02
(1,12,1): (1,11,1) 3.164824E-03 (1,12,2) 6.766673E-03 (1,13,1) -1.090296E-03
(1,12,2): (1,11,2) 2.093416E-02 (1,12,1) -6.766673E-03 (1,12,3) 3.696942E-02 (1,13,2) -6.469010E-03
(1,12,3): (1,11,3) 0.133378 (1,12,2) -3.696942E-02 (1,12,4) 0.150924 (1,13,3) -3.649624E-02
(1,12,4): (1,11,4) 0.691056 (1,12,3) -0.150924 (1,12,5) 0.375874 (1,13,4) -0.162083
(1,12,5): (1,11,5) 2.52111 (1,12,4) -0.375874 (1,12,6) 9.692291E-02 (1,13,5) -0.483322
(1,12,6): (1,11,6) 2.82483 (1,12,5) -9.692291E-02 (1,12,7) -9.692064E-02 (1,13,6) -0.563814
(1,12,7): (1,11,7) 2.52111 (1,12,6) 9.692064E-02 (1,12,8) -0.375856 (1,13,7) -0.483323
(1,12,8): (1,11,8) 0.691094 (1,12,7) 0.375856 (1,12,9) -0.150779 (1,13,8) -0.162098
(1,12,9): (1,11,9) 0.133716 (1,12,8) 0.150779 (1,12,10) -3.591045E-02 (1,13,9) -3.662144E-02
(1,12,10): (1,11,10) 2.372186E-02 (1,12,9) 3.591045E-02 (1,13,10) -7.417876E-03
(1,13,1): (1,12,1) 1.090296E-03 (1,13,2) 1.387943E-03 (1,14,1) -2.604976E-04
(1,13,2): (1,12,2) 6.469010E-03 (1,13,1) -1.387943E-03 (1,13,3) 6.942054E-03 (1,14,2) -1.414487E-03
(1,13,3): (1,12,3) 3.649624E-02 (1,13,2) -6.942054E-03 (1,13,4) 2.535086E-02 (1,14,3) -7.270720E-03
(1,13,4): (1,12,4) 0.162083 (1,13,3) -2.535086E-02 (1,13,5) 5.497601E-02 (1,14,4) -2.899568E-02
(1,13,5): (1,12,5) 0.483322 (1,13,4) -5.497601E-02 (1,13,6) 1.679926E-02 (1,14,5) -7.686079E-02
(1,13,6): (1,12,6) 0.563814 (1,13,5) -1.679926E-02 (1,13,7) -1.679866E-02 (1,14,6) -9.126683E-02
(1,13,7): (1,12,7) 0.483323 (1,13,6) 1.679866E-02 (1,13,8) -5.497152E-02 (1,14,7) -7.686126E-02
(1,13,8): (1,12,8) 0.162098 (1,13,7) 5.497152E-02 (1,13,9) -2.531652E-02 (1,14,8) -2.899972E-02
(1,13,9): (1,12,9) 3.662144E-02 (1,13,8) 2.531652E-02 (1,13,10) -6.707094E-03 (1,14,9) -7.302487E-03
(1,13,10): (1,12,10) 7.417876E-03 (1,13,9) 6.707094E-03 (1,14,10) -1.638712E-03
(1,14,1): (1,13,1) 2.604976E-04 (1,14,2) 2.339531E-04 (1,15,1) -4.839050E-05
(1,14,2): (1,13,2) 1.414487E-03 (1,14,1) -2.339531E-04 (1,14,3) 1.085841E-03 (1,15,2) -2.440263E-04
(1,14,3): (1,13,3) 7.270720E-03 (1,14,2) -1.085841E-03 (1,14,4) 3.626692E-03 (1,15,3) -1.164145E-03
(1,14,4): (1,13,4) 2.899568E-02 (1,14,3) -3.626692E-03 (1,14,5) 7.121351E-03 (1,15,4) -4.280326E-03
(1,14,5): (1,13,5) 7.686079E-02 (1,14,4) -7.121351E-03 (1,14,6) 2.403918E-03 (1,15,5) -1.047904E-02
(1,14,6): (1,13,6) 9.126683E-02 (1,14,5) -2.403918E-03 (1,14,7) -2.403789E-03 (1,15,6) -1.254900E-02
(1,14,7): (1,13,7) 7.686126E-02 (1,14,6) 2.403789E-03 (1,14,8) -7.120436E-03 (1,15,7) -1.047914E-02
(1,14,8): (1,13,8) 2.899972E-02 (1,14,7) 7.120436E-03 (1,14,9) -3.620080E-03 (1,15,8) -4.281160E-03
(1,14,9): (1,13,9) 7.302487E-03 (1,14,8) 3.620080E-03 (1,14,10) -1.043353E-03 (1,15,9) -1.170354E-03
(1,14,10): (1,13,10) 1.638712E-03 (1,14,9) 1.043353E-03 (1,15,10) -2.852641E-04
(1,15,1): (1,14,1) 4.839050E-05 (1,15,2) 3.831730E-05
(1,15,2): (1,14,2) 2.440263E-04 (1,15,1) -3.831730E-05 (1,15,3) 1.657231E-04
(1,15,3): (1,14,3) 1.164145E-03 (1,15,2) -1.657231E-04 (1,15,4) 5.105310E-04
(1,15,4): (1,14,4) 4.280326E-03 (1,15,3) -5.105310E-04 (1,15,5) 9.228437E-04
(1,15,5): (1,14,5) 1.047904E-02 (1,15,4) -9.228437E-04 (1,15,6) 3.341703E-04
(1,15,6): (1,14,6) 1.254900E-02 (1,15,5) -3.341703E-04 (1,15,7) -3.341422E-04
(1,15,7): (1,14,7) 1.047914E-02 (1,15,6) 3.341422E-04 (1,15,8) -9.226613E-04
(1,15,8): (1,14,8) 4.281160E-03 (1,15,7) 9.226613E-04 (1,15,9) -5.092938E-04
(1,15,9): (1,14,9) 1.170354E-03 (1,15,8) 5.092938E-04 (1,15,10) -1.582649E-04
(1,15,10): (1,14,10) 2.852641E-04 (1,15,9) 1.582649E-04

 WEL PACKAGE (WEL-1) FLOW RATES   PERIOD      2   STEP       12
 ----------------------------------------------------------------------------------------
   NUMBER   CELLID                    RATE       NAME                                    
 ----------------------------------------------------------------------------------------
     1      (1,8,6)              -270.00000      WEL                                     
 ----------------------------------------------------------------------------------------




 API PACKAGE (MAR) FLOW RATES   PERIOD      2   STEP       12
 -----------------------------------------------
   NUMBER   CELLID                    RATE      
 -----------------------------------------------
     1      (1,6,5)               46.666667     
     2      (1,6,6)               46.666667     
     3      (1,6,7)               46.666667     
     4      (1,10,5)              43.333333     
     5      (1,10,6)              43.333333     
     6      (1,10,7)              43.333333     
 -----------------------------------------------



1
  HEAD IN LAYER   1 AT END OF TIME STEP  12 IN STRESS PERIOD    2
  ---------------------------------------------------------------------------

            1           2           3           4           5           6           7           8           9          10
 ........................................................................................................................
   1   1.1451E-06  5.2906E-06  2.3224E-05  7.8491E-05  1.7847E-04  2.1485E-04  1.7848E-04  7.8514E-05  2.3380E-05  6.2534E-06
   2   6.3810E-06  3.1700E-05  1.4925E-04  5.4203E-04  1.3140E-03  1.5763E-03  1.3140E-03  5.4214E-04  1.5008E-04  3.7125E-05
   3   3.4581E-05  1.8486E-04  9.3672E-04  3.6831E-03  9.6415E-03  1.1481E-02  9.6416E-03  3.6836E-03  9.4099E-04  2.1456E-04
   4   1.5271E-04  8.8590E-04  4.8915E-03  2.1226E-02  6.1784E-02  7.2413E-02  6.1785E-02  2.1228E-02  4.9093E-03  1.0184E-03
   5   4.9625E-04  3.1580E-03  1.9347E-02  9.5574E-02  0.3270      0.3698      0.3270      9.5580E-02  1.9401E-02  3.5929E-03
   6   9.3619E-04  6.5851E-03  4.5866E-02  0.2739       1.297       1.348       1.297      0.2739      4.5963E-02  7.4130E-03
   7   2.4473E-04  1.3038E-03  5.9945E-03  1.4286E-02 -6.0617E-02 -0.8946     -6.0617E-02  1.4290E-02  6.0241E-03  1.5150E-03
   8  -2.6608E-04 -2.5745E-03 -2.3303E-02 -0.1811      -1.195      -6.995      -1.195     -0.1811     -2.3323E-02 -2.8189E-03
   9   2.0871E-04  1.0722E-03  4.5645E-03  7.1647E-03 -8.5405E-02 -0.9243     -8.5405E-02  7.1680E-03  4.5902E-03  1.2517E-03
  10   8.5944E-04  6.0451E-03  4.2121E-02  0.2521       1.203       1.240       1.203      0.2521      4.2209E-02  6.8052E-03
  11   4.5744E-04  2.9104E-03  1.7827E-02  8.8078E-02  0.3017      0.3398      0.3017      8.8084E-02  1.7877E-02  3.3113E-03
  12   1.4098E-04  8.1759E-04  4.5129E-03  1.9576E-02  5.6950E-02  6.6578E-02  5.6951E-02  1.9578E-02  4.5293E-03  9.3989E-04
  13   3.1947E-05  1.7074E-04  8.6488E-04  3.3991E-03  8.8918E-03  1.0570E-02  8.8919E-03  3.3996E-03  8.6883E-04  1.9818E-04
  14   5.8976E-06  2.9293E-05  1.3788E-04  5.0053E-04  1.2126E-03  1.4529E-03  1.2126E-03  5.0063E-04  1.3864E-04  3.4307E-05
  15   1.0586E-06  4.8903E-06  2.1463E-05  7.2515E-05  1.6480E-04  1.9821E-04  1.6480E-04  7.2536E-05  2.1607E-05  5.7809E-06

 HEAD WILL BE SAVED ON UNIT 1043 AT END OF TIME STEP   12, STRESS PERIOD    2


  VOLUME BUDGET FOR ENTIRE MODEL AT END OF TIME STEP   12, STRESS PERIOD   2
  ---------------------------------------------------------------------------------------------------

     CUMULATIVE VOLUME      L**3       RATES FOR THIS TIME STEP      L**3/T          PACKAGE NAME    
     ------------------                 ------------------------                     ----------------

           IN:                                      IN:
           ---                                      ---
              STO-SS =           9.3070                STO-SS =       5.1497E-02     STORAGE                          
              STO-SY =       23966.9878                STO-SY =         149.1789     STORAGE                          
                 WEL =           0.0000                   WEL =           0.0000     WEL-1                            
                 API =       32400.0000                   API =         270.0000     MAR                              
                 CHD =       2.8247E-08                   CHD =           0.0000     CHD_0                            

            TOTAL IN =       56376.2948              TOTAL IN =         419.2304

          OUT:                                     OUT:
          ----                                     ----
              STO-SS =          12.5124                STO-SS =       7.8782E-02     STORAGE                          
              STO-SY =       23963.7824                STO-SY =         149.1516     STORAGE                          
                 WEL =       32400.0000                   WEL =         270.0000     WEL-1                            
                 API =           0.0000                   API =           0.0000     MAR                              
                 CHD =       3.0388E-08                   CHD =           0.0000     CHD_0                            

           TOTAL OUT =       56376.2948             TOTAL OUT =         419.2304

            IN - OUT =      -4.7992E-08              IN - OUT =      -7.5431E-11

 PERCENT DISCREPANCY =          -0.00     PERCENT DISCREPANCY =          -0.00




         TIME SUMMARY AT END OF TIME STEP   12 IN STRESS PERIOD    2
                    SECONDS     MINUTES      HOURS       DAYS        YEARS
                    -----------------------------------------------------------
   TIME STEP LENGTH 8.64000E+05  14400.      240.00      10.000     2.73785E-02
 STRESS PERIOD TIME 1.03680E+07 1.72800E+05  2880.0      120.00     0.32854    
         TOTAL TIME 1.04544E+07 1.74240E+05  2904.0      121.00     0.33128    


end timestep


start timestep kper="2" kstp="13" mode="normal"

 UBDSV1 SAVING           STO-SS ON UNIT   1042 AT TIME STEP     13, STRESS PERIOD      2
 UBDSV1 SAVING           STO-SY ON UNIT   1042 AT TIME STEP     13, STRESS PERIOD      2
 UBDSV1 SAVING     FLOW-JA-FACE ON UNIT   1042 AT TIME STEP     13, STRESS PERIOD      2
 UBDSV06 SAVING       DATA-SPDIS IN MODEL GWF              PACKAGE NPF             CONNECTED TO MODEL GWF              PACKAGE NPF              ON UNIT   1042 AT TIME STEP     13, STRESS PERIOD      2
 UBDSV06 SAVING              WEL IN MODEL GWF              PACKAGE GWF             CONNECTED TO MODEL GWF              PACKAGE WEL-1            ON UNIT   1042 AT TIME STEP     13, STRESS PERIOD      2
 UBDSV06 SAVING              API IN MODEL GWF              PACKAGE GWF             CONNECTED TO MODEL GWF              PACKAGE MAR              ON UNIT   1042 AT TIME STEP     13, STRESS PERIOD      2
 UBDSV06 SAVING              CHD IN MODEL GWF              PACKAGE GWF             CONNECTED TO MODEL GWF              PACKAGE CHD_0            ON UNIT   1042 AT TIME STEP     13, STRESS PERIOD      2

    CALCULATED INTERCELL FLOW FOR PERIOD 2 STEP 13
(1,1,1): (1,1,2) 6.354166E-05 (1,2,1) 8.022460E-05
(1,1,2): (1,1,1) -6.354166E-05 (1,1,3) 2.637575E-04 (1,2,2) 3.855137E-04
(1,1,3): (1,1,2) -2.637575E-04 (1,1,4) 7.781463E-04 (1,2,3) 1.760704E-03
(1,1,4): (1,1,3) -7.781463E-04 (1,1,5) 1.353091E-03 (1,2,4) 6.211625E-03
(1,1,5): (1,1,4) -1.353091E-03 (1,1,6) 5.021960E-04 (1,2,5) 1.470559E-02
(1,1,6): (1,1,5) -5.021960E-04 (1,1,7) -5.021434E-04 (1,2,6) 1.762880E-02
(1,1,7): (1,1,6) 5.021434E-04 (1,1,8) -1.352750E-03 (1,2,7) 1.470577E-02
(1,1,8): (1,1,7) 1.352750E-03 (1,1,9) -7.759114E-04 (1,2,8) 6.213119E-03
(1,1,9): (1,1,8) 7.759114E-04 (1,1,10) -2.508361E-04 (1,2,9) 1.771369E-03
(1,1,10): (1,1,9) 2.508361E-04 (1,2,10) 4.533776E-04
(1,2,1): (1,1,1) -8.022460E-05 (1,2,2) 3.688307E-04 (1,3,1) 4.127619E-04
(1,2,2): (1,1,2) -3.855137E-04 (1,2,1) -3.688307E-04 (1,2,3) 1.638946E-03 (1,3,2) 2.130652E-03
(1,2,3): (1,1,3) -1.760704E-03 (1,2,2) -1.638946E-03 (1,2,4) 5.229023E-03 (1,3,3) 1.045924E-02
(1,2,4): (1,1,4) -6.211625E-03 (1,2,3) -5.229023E-03 (1,2,5) 9.846640E-03 (1,3,4) 3.991212E-02
(1,2,5): (1,1,5) -1.470559E-02 (1,2,4) -9.846640E-03 (1,2,6) 3.425000E-03 (1,3,5) 0.101980
(1,2,6): (1,1,6) -1.762880E-02 (1,2,5) -3.425000E-03 (1,2,7) -3.424758E-03 (1,3,6) 0.121353
(1,2,7): (1,1,7) -1.470577E-02 (1,2,6) 3.424758E-03 (1,2,8) -9.844993E-03 (1,3,7) 0.101981
(1,2,8): (1,1,8) -6.213119E-03 (1,2,7) 9.844993E-03 (1,2,9) -5.217618E-03 (1,3,8) 3.991907E-02
(1,2,9): (1,1,9) -1.771369E-03 (1,2,8) 5.217618E-03 (1,2,10) -1.568825E-03 (1,3,9) 1.051152E-02
(1,2,10): (1,1,10) -4.533776E-04 (1,2,9) 1.568825E-03 (1,3,10) 2.483377E-03
(1,3,1): (1,2,1) -4.127619E-04 (1,3,2) 2.086720E-03 (1,4,1) 1.643838E-03
(1,3,2): (1,2,2) -2.130652E-03 (1,3,1) -2.086720E-03 (1,3,3) 9.967495E-03 (1,4,2) 9.250566E-03
(1,3,3): (1,2,3) -1.045924E-02 (1,3,2) -9.967495E-03 (1,3,4) 3.468036E-02 (1,4,3) 4.972440E-02
(1,3,4): (1,2,4) -3.991212E-02 (1,3,3) -3.468036E-02 (1,3,5) 7.189571E-02 (1,4,4) 0.210756
(1,3,5): (1,2,5) -0.101980 (1,3,4) -7.189571E-02 (1,3,6) 2.277964E-02 (1,4,5) 0.603794
(1,3,6): (1,2,6) -0.121353 (1,3,5) -2.277964E-02 (1,3,7) -2.277856E-02 (1,4,6) 0.706745
(1,3,7): (1,2,7) -0.101981 (1,3,6) 2.277856E-02 (1,3,8) -7.188794E-02 (1,4,7) 0.603797
(1,3,8): (1,2,8) -3.991907E-02 (1,3,7) 7.188794E-02 (1,3,9) -3.462362E-02 (1,4,8) 0.210781
(1,3,9): (1,2,9) -1.051152E-02 (1,3,8) 3.462362E-02 (1,3,10) -9.596893E-03 (1,4,9) 4.992098E-02
(1,3,10): (1,2,10) -2.483377E-03 (1,3,9) 9.596893E-03 (1,4,10) 1.067121E-02
(1,4,1): (1,3,1) -1.643838E-03 (1,4,2) 9.693482E-03 (1,5,1) 4.522222E-03
(1,4,2): (1,3,2) -9.250566E-03 (1,4,1) -9.693482E-03 (1,4,3) 5.044162E-02 (1,5,2) 2.830785E-02
(1,4,3): (1,3,3) -4.972440E-02 (1,4,2) -5.044162E-02 (1,4,4) 0.195688 (1,5,3) 0.171479
(1,4,4): (1,3,4) -0.210756 (1,4,3) -0.195688 (1,4,5) 0.464395 (1,5,4) 0.846139
(1,4,5): (1,3,5) -0.603794 (1,4,4) -0.464395 (1,4,6) 0.125146 (1,5,5) 2.95767
(1,4,6): (1,3,6) -0.706745 (1,4,5) -0.125146 (1,4,7) -0.125142 (1,5,6) 3.32814
(1,4,7): (1,3,7) -0.603797 (1,4,6) 0.125142 (1,4,8) -0.464365 (1,5,7) 2.95768
(1,4,8): (1,3,8) -0.210781 (1,4,7) 0.464365 (1,4,9) -0.195459 (1,5,8) 0.846199
(1,4,9): (1,3,9) -4.992098E-02 (1,4,8) 0.195459 (1,4,10) -4.884624E-02 (1,5,9) 0.171984
(1,4,10): (1,3,10) -1.067121E-02 (1,4,9) 4.884624E-02 (1,5,10) 3.226483E-02
(1,5,1): (1,4,1) -4.522222E-03 (1,5,2) 3.348034E-02 (1,6,1) 5.356333E-03
(1,5,2): (1,4,2) -2.830785E-02 (1,5,1) -3.348034E-02 (1,5,3) 0.193644 (1,6,2) 3.952055E-02
(1,5,3): (1,4,3) -0.171479 (1,5,2) -0.193644 (1,5,4) 0.870508 (1,6,3) 0.292378
(1,5,4): (1,4,4) -0.846139 (1,5,3) -0.870508 (1,5,5) 2.56834 (1,6,4) 1.92344
(1,5,5): (1,4,5) -2.95767 (1,5,4) -2.56834 (1,5,6) 0.486242 (1,6,5) 11.1221
(1,5,6): (1,4,6) -3.32814 (1,5,5) -0.486242 (1,5,7) -0.486231 (1,6,6) 11.1796
(1,5,7): (1,4,7) -2.95768 (1,5,6) 0.486231 (1,5,8) -2.56825 (1,6,7) 11.1222
(1,5,8): (1,4,8) -0.846199 (1,5,7) 2.56825 (1,5,9) -0.869829 (1,6,8) 1.92350
(1,5,9): (1,4,9) -0.171984 (1,5,8) 0.869829 (1,5,10) -0.188589 (1,6,9) 0.292917
(1,5,10): (1,4,10) -3.226483E-02 (1,5,9) 0.188589 (1,6,10) 4.428354E-02
(1,6,1): (1,5,1) -5.356333E-03 (1,6,2) 6.765414E-02 (1,7,1) -8.847440E-03
(1,6,2): (1,5,2) -3.952055E-02 (1,6,1) -6.765414E-02 (1,6,3) 0.446888 (1,7,2) -6.392275E-02
(1,6,3): (1,5,3) -0.292378 (1,6,2) -0.446888 (1,6,4) 2.51056 (1,7,3) -0.460077
(1,6,4): (1,5,4) -1.92344 (1,6,3) -2.51056 (1,6,5) 11.8156 (1,7,4) -2.91570
(1,6,5): (1,5,5) -11.1221 (1,6,4) -11.8156 (1,6,6) 0.542780 (1,7,5) -16.0708
(1,6,6): (1,5,6) -11.1796 (1,6,5) -0.542780 (1,6,7) -0.542761 (1,7,6) -26.6954
(1,6,7): (1,5,7) -11.1222 (1,6,6) 0.542761 (1,6,8) -11.8155 (1,7,7) -16.0708
(1,6,8): (1,5,8) -1.92350 (1,6,7) 11.8155 (1,6,9) -2.50938 (1,7,8) -2.91580
(1,6,9): (1,5,9) -0.292917 (1,6,8) 2.50938 (1,6,10) -0.437578 (1,7,9) -0.460980
(1,6,10): (1,5,10) -4.428354E-02 (1,6,9) 0.437578 (1,7,10) -7.177855E-02
(1,7,1): (1,6,1) 8.847440E-03 (1,7,2) 1.257678E-02 (1,8,1) -6.630116E-03
(1,7,2): (1,6,2) 6.392275E-02 (1,7,1) -1.257678E-02 (1,7,3) 5.078523E-02 (1,8,2) -4.764470E-02
(1,7,3): (1,6,3) 0.460077 (1,7,2) -5.078523E-02 (1,7,4) 6.428297E-02 (1,8,3) -0.342150
(1,7,4): (1,6,4) 2.91570 (1,7,3) -6.428297E-02 (1,7,5) -0.922300 (1,8,4) -2.17223
(1,7,5): (1,6,5) 16.0708 (1,7,4) 0.922300 (1,7,6) -8.72570 (1,8,5) -11.9535
(1,7,6): (1,6,6) 26.6954 (1,7,5) 8.72570 (1,7,7) 8.72570 (1,8,6) -56.9522
(1,7,7): (1,6,7) 16.0708 (1,7,6) -8.72570 (1,7,8) 0.922348 (1,8,7) -11.9535
(1,7,8): (1,6,8) 2.91580 (1,7,7) -0.922348 (1,7,9) -6.393060E-02 (1,8,8) -2.17230
(1,7,9): (1,6,9) 0.460980 (1,7,8) 6.393060E-02 (1,7,10) -4.846693E-02 (1,8,9) -0.342826
(1,7,10): (1,6,10) 7.177855E-02 (1,7,9) 4.846693E-02 (1,8,10) -5.352394E-02
(1,8,1): (1,7,1) 6.630116E-03 (1,8,2) -2.843152E-02 (1,9,1) 6.145296E-03
(1,8,2): (1,7,2) 4.764470E-02 (1,8,1) 2.843152E-02 (1,8,3) -0.243456 (1,9,2) 4.469723E-02
(1,8,3): (1,7,3) 0.342150 (1,8,2) 0.243456 (1,8,4) -1.75841 (1,9,3) 0.324822
(1,8,4): (1,7,4) 2.17223 (1,8,3) 1.75841 (1,8,5) -10.5802 (1,9,4) 2.08874
(1,8,5): (1,7,5) 11.9535 (1,8,4) 10.5802 (1,8,6) -52.0670 (1,9,5) 11.6519
(1,8,6): (1,7,6) 56.9522 (1,8,5) 52.0670 (1,8,7) 52.0670 (1,9,6) 56.4521
(1,8,7): (1,7,7) 11.9535 (1,8,6) -52.0670 (1,8,8) 10.5802 (1,9,7) 11.6519
(1,8,8): (1,7,8) 2.17230 (1,8,7) -10.5802 (1,8,9) 1.75816 (1,9,8) 2.08880
(1,8,9): (1,7,9) 0.342826 (1,8,8) -1.75816 (1,8,10) 0.240564 (1,9,9) 0.325442
(1,8,10): (1,7,10) 5.352394E-02 (1,8,9) -0.240564 (1,9,10) 5.015342E-02
(1,9,1): (1,8,1) -6.145296E-03 (1,9,2) 1.011517E-02 (1,10,1) 8.332846E-03
(1,9,2): (1,8,2) -4.469723E-02 (1,9,1) -1.011517E-02 (1,9,3) 3.645422E-02 (1,10,2) 6.024558E-02
(1,9,3): (1,8,3) -0.324822 (1,9,2) -3.645422E-02 (1,9,4) -2.186211E-04 (1,10,3) 0.433674
(1,9,4): (1,8,4) -2.08874 (1,9,3) 2.186211E-04 (1,9,5) -1.11171 (1,10,4) 2.74773
(1,9,5): (1,8,5) -11.6519 (1,9,4) 1.11171 (1,9,6) -8.75614 (1,10,5) 15.1326
(1,9,6): (1,8,6) -56.4521 (1,9,5) 8.75614 (1,9,7) 8.75614 (1,10,6) 25.5431
(1,9,7): (1,8,7) -11.6519 (1,9,6) -8.75614 (1,9,8) 1.11175 (1,10,7) 15.1326
(1,9,8): (1,8,8) -2.08880 (1,9,7) -1.11175 (1,9,9) 5.222407E-04 (1,10,8) 2.74782
(1,9,9): (1,8,9) -0.325442 (1,9,8) -5.222407E-04 (1,9,10) -3.450385E-02 (1,10,9) 0.434522
(1,9,10): (1,8,10) -5.015342E-02 (1,9,9) 3.450385E-02 (1,10,10) 6.764497E-02
(1,10,1): (1,9,1) -8.332846E-03 (1,10,2) 6.202883E-02 (1,11,1) -4.883032E-03
(1,10,2): (1,9,2) -6.024558E-02 (1,10,1) -6.202883E-02 (1,10,3) 0.409794 (1,11,2) -3.607065E-02
(1,10,3): (1,9,3) -0.433674 (1,10,2) -0.409794 (1,10,4) 2.30415 (1,11,3) -0.267262
(1,10,4): (1,9,4) -2.74773 (1,10,3) -2.30415 (1,10,5) 10.8771 (1,11,4) -1.76262
(1,10,5): (1,9,5) -15.1326 (1,10,4) -10.8771 (1,10,6) 0.386394 (1,11,5) -10.2344
(1,10,6): (1,9,6) -25.5431 (1,10,5) -0.386394 (1,10,7) -0.386378 (1,11,6) -10.1833
(1,10,7): (1,9,7) -15.1326 (1,10,6) 0.386378 (1,10,8) -10.8770 (1,11,7) -10.2344
(1,10,8): (1,9,8) -2.74782 (1,10,7) 10.8770 (1,10,9) -2.30307 (1,11,8) -1.76267
(1,10,9): (1,9,9) -0.434522 (1,10,8) 2.30307 (1,10,10) -0.401260 (1,11,9) -0.267753
(1,10,10): (1,9,10) -6.764497E-02 (1,10,9) 0.401260 (1,11,10) -4.041300E-02
(1,11,1): (1,10,1) 4.883032E-03 (1,11,2) 3.083313E-02 (1,12,1) -4.162732E-03
(1,11,2): (1,10,2) 3.607065E-02 (1,11,1) -3.083313E-02 (1,11,3) 0.178277 (1,12,2) -2.605368E-02
(1,11,3): (1,10,3) 0.267262 (1,11,2) -0.178277 (1,11,4) 0.801148 (1,12,3) -0.157795
(1,11,4): (1,10,4) 1.76262 (1,11,3) -0.801148 (1,11,5) 2.36310 (1,12,4) -0.778481
(1,11,5): (1,10,5) 10.2344 (1,11,4) -2.36310 (1,11,6) 0.431081 (1,12,5) -2.72055
(1,11,6): (1,10,6) 10.1833 (1,11,5) -0.431081 (1,11,7) -0.431071 (1,12,6) -3.04611
(1,11,7): (1,10,7) 10.2344 (1,11,6) 0.431071 (1,11,8) -2.36302 (1,12,7) -2.72056
(1,11,8): (1,10,8) 1.76267 (1,11,7) 2.36302 (1,11,9) -0.800522 (1,12,8) -0.778536
(1,11,9): (1,10,9) 0.267753 (1,11,8) 0.800522 (1,11,10) -0.173620 (1,12,9) -0.158260
(1,11,10): (1,10,10) 4.041300E-02 (1,11,9) 0.173620 (1,12,10) -2.969590E-02
(1,12,1): (1,11,1) 4.162732E-03 (1,12,2) 8.941139E-03 (1,13,1) -1.516388E-03
(1,12,2): (1,11,2) 2.605368E-02 (1,12,1) -8.941139E-03 (1,12,3) 4.650865E-02 (1,13,2) -8.531076E-03
(1,12,3): (1,11,3) 0.157795 (1,12,2) -4.650865E-02 (1,12,4) 0.180324 (1,13,3) -4.584107E-02
(1,12,4): (1,11,4) 0.778481 (1,12,3) -0.180324 (1,12,5) 0.427476 (1,13,4) -0.194200
(1,12,5): (1,11,5) 2.72055 (1,12,4) -0.427476 (1,12,6) 0.113174 (1,13,5) -0.555899
(1,12,6): (1,11,6) 3.04611 (1,12,5) -0.113174 (1,12,7) -0.113171 (1,13,6) -0.648794
(1,12,7): (1,11,7) 2.72056 (1,12,6) 0.113171 (1,12,8) -0.427449 (1,13,7) -0.555902
(1,12,8): (1,11,8) 0.778536 (1,12,7) 0.427449 (1,12,9) -0.180113 (1,13,8) -0.194223
(1,12,9): (1,11,9) 0.158260 (1,12,8) 0.180113 (1,12,10) -4.503672E-02 (1,13,9) -4.602240E-02
(1,12,10): (1,11,10) 2.969590E-02 (1,12,9) 4.503672E-02 (1,13,10) -9.841508E-03
(1,13,1): (1,12,1) 1.516388E-03 (1,13,2) 1.926421E-03 (1,14,1) -3.811365E-04
(1,13,2): (1,12,2) 8.531076E-03 (1,13,1) -1.926421E-03 (1,13,3) 9.198408E-03 (1,14,2) -1.966869E-03
(1,13,3): (1,12,3) 4.584107E-02 (1,13,2) -9.198408E-03 (1,13,4) 3.198582E-02 (1,14,3) -9.651915E-03
(1,13,4): (1,12,4) 0.194200 (1,13,3) -3.198582E-02 (1,13,5) 6.623461E-02 (1,14,4) -3.681312E-02
(1,13,5): (1,12,5) 0.555899 (1,13,4) -6.623461E-02 (1,13,6) 2.076593E-02 (1,14,5) -9.398526E-02
(1,13,6): (1,12,6) 0.648794 (1,13,5) -2.076593E-02 (1,13,7) -2.076493E-02 (1,14,6) -0.111631
(1,13,7): (1,12,7) 0.555902 (1,13,6) 2.076493E-02 (1,13,8) -6.622744E-02 (1,14,7) -9.398604E-02
(1,13,8): (1,12,8) 0.194223 (1,13,7) 6.622744E-02 (1,13,9) -3.193341E-02 (1,14,8) -3.681955E-02
(1,13,9): (1,12,9) 4.602240E-02 (1,13,8) 3.193341E-02 (1,13,10) -8.856182E-03 (1,14,9) -9.700190E-03
(1,13,10): (1,12,10) 9.841508E-03 (1,13,9) 8.856182E-03 (1,14,10) -2.292555E-03
(1,14,1): (1,13,1) 3.811365E-04 (1,14,2) 3.406894E-04 (1,15,1) -7.412098E-05
(1,14,2): (1,13,2) 1.966869E-03 (1,14,1) -3.406894E-04 (1,14,3) 1.513398E-03 (1,15,2) -3.560930E-04
(1,14,3): (1,13,3) 9.651915E-03 (1,14,2) -1.513398E-03 (1,14,4) 4.825919E-03 (1,15,3) -1.625825E-03
(1,14,4): (1,13,4) 3.681312E-02 (1,14,3) -4.825919E-03 (1,14,5) 9.078298E-03 (1,15,4) -5.733234E-03
(1,14,5): (1,13,5) 9.398526E-02 (1,14,4) -9.078298E-03 (1,14,6) 3.135885E-03 (1,15,5) -1.356353E-02
(1,14,6): (1,13,6) 0.111631 (1,14,5) -3.135885E-03 (1,14,7) -3.135661E-03 (1,15,6) -1.623864E-02
(1,14,7): (1,13,7) 9.398604E-02 (1,14,6) 3.135661E-03 (1,14,8) -9.076775E-03 (1,15,7) -1.356370E-02
(1,14,8): (1,13,8) 3.681955E-02 (1,14,7) 9.076775E-03 (1,14,9) -4.815378E-03 (1,15,8) -5.734614E-03
(1,14,9): (1,13,9) 9.700190E-03 (1,14,8) 4.815378E-03 (1,14,10) -1.448610E-03 (1,15,9) -1.635679E-03
(1,14,10): (1,13,10) 2.292555E-03 (1,14,9) 1.448610E-03 (1,15,10) -4.187912E-04
(1,15,1): (1,14,1) 7.412098E-05 (1,15,2) 5.871735E-05
(1,15,2): (1,14,2) 3.560930E-04 (1,15,1) -5.871735E-05 (1,15,3) 2.436675E-04
(1,15,3): (1,14,3) 1.625825E-03 (1,15,2) -2.436675E-04 (1,15,4) 7.185474E-04
(1,15,4): (1,14,4) 5.733234E-03 (1,15,3) -7.185474E-04 (1,15,5) 1.248356E-03
(1,15,5): (1,14,5) 1.356353E-02 (1,15,4) -1.248356E-03 (1,15,6) 4.611207E-04
(1,15,6): (1,14,6) 1.623864E-02 (1,15,5) -4.611207E-04 (1,15,7) -4.610706E-04
(1,15,7): (1,14,7) 1.356370E-02 (1,15,6) 4.610706E-04 (1,15,8) -1.248040E-03
(1,15,8): (1,14,8) 5.734614E-03 (1,15,7) 1.248040E-03 (1,15,9) -7.164806E-04
(1,15,9): (1,14,9) 1.635679E-03 (1,15,8) 7.164806E-04 (1,15,10) -2.317245E-04
(1,15,10): (1,14,10) 4.187912E-04 (1,15,9) 2.317245E-04

 WEL PACKAGE (WEL-1) FLOW RATES   PERIOD      2   STEP       13
 ----------------------------------------------------------------------------------------
   NUMBER   CELLID                    RATE       NAME                                    
 ----------------------------------------------------------------------------------------
     1      (1,8,6)              -270.00000      WEL                                     
 ----------------------------------------------------------------------------------------




 API PACKAGE (MAR) FLOW RATES   PERIOD      2   STEP       13
 -----------------------------------------------
   NUMBER   CELLID                    RATE      
 -----------------------------------------------
     1      (1,6,5)               46.666667     
     2      (1,6,6)               46.666667     
     3      (1,6,7)               46.666667     
     4      (1,10,5)              43.333333     
     5      (1,10,6)              43.333333     
     6      (1,10,7)              43.333333     
 -----------------------------------------------



1
  HEAD IN LAYER   1 AT END OF TIME STEP  13 IN STRESS PERIOD    2
  ---------------------------------------------------------------------------

            1           2           3           4           5           6           7           8           9          10
 ........................................................................................................................
   1   1.8636E-06  8.2177E-06  3.4593E-05  1.1241E-04  2.4771E-04  2.9793E-04  2.4772E-04  1.1245E-04  3.4856E-05  9.7727E-06
   2   9.8860E-06  4.6769E-05  2.1066E-04  7.3352E-04  1.7180E-03  2.0604E-03  1.7180E-03  7.3371E-04  2.1199E-04  5.5110E-05
   3   5.1162E-05  2.5983E-04  1.2565E-03  4.7229E-03  1.1904E-02  1.4179E-02  1.1904E-02  4.7237E-03  1.2630E-03  3.0344E-04
   4   2.1554E-04  1.1848E-03  6.2258E-03  2.5744E-02  7.1853E-02  8.4263E-02  7.1853E-02  2.5748E-02  6.2520E-03  1.3704E-03
   5   6.6773E-04  4.0144E-03  2.3334E-02  0.1094      0.3574      0.4041      0.3574      0.1095      2.3410E-02  4.5954E-03
   6   1.2033E-03  7.9633E-03  5.2419E-02  0.2963       1.338       1.386       1.338      0.2963      5.2549E-02  9.0198E-03
   7   3.1867E-04  1.5761E-03  6.6513E-03  1.3071E-02 -7.9038E-02 -0.9586     -7.9038E-02  1.3077E-02  6.6918E-03  1.8484E-03
   8  -3.4432E-04 -3.1876E-03 -2.7541E-02 -0.2039      -1.284      -7.258      -1.284     -0.2039     -2.7568E-02 -3.5030E-03
   9   2.7019E-04  1.2816E-03  4.9252E-03  4.9034E-03 -0.1062     -0.9912     -0.1062      4.9080E-03  4.9602E-03  1.5116E-03
  10   1.1034E-03  7.3017E-03  4.8085E-02  0.2724       1.240       1.274       1.240      0.2724      4.8204E-02  8.2705E-03
  11   6.1513E-04  3.6973E-03  2.1487E-02  0.1008      0.3296      0.3711      0.3296      0.1008      2.1557E-02  4.2325E-03
  12   1.9888E-04  1.0929E-03  5.7411E-03  2.3731E-02  6.6197E-02  7.7428E-02  6.6198E-02  2.3734E-02  5.7653E-03  1.2642E-03
  13   4.7248E-05  2.3989E-04  1.1596E-03  4.3568E-03  1.0973E-02  1.3047E-02  1.0973E-02  4.3576E-03  1.1657E-03  2.8016E-04
  14   9.1345E-06  4.3203E-05  1.9454E-04  6.7710E-04  1.5848E-03  1.8983E-03  1.5848E-03  6.7727E-04  1.9577E-04  5.0911E-05
  15   1.7225E-06  7.5942E-06  3.1961E-05  1.0381E-04  2.2865E-04  2.7476E-04  2.2865E-04  1.0385E-04  3.2204E-05  9.0319E-06

 HEAD WILL BE SAVED ON UNIT 1043 AT END OF TIME STEP   13, STRESS PERIOD    2


  VOLUME BUDGET FOR ENTIRE MODEL AT END OF TIME STEP   13, STRESS PERIOD   2
  ---------------------------------------------------------------------------------------------------

     CUMULATIVE VOLUME      L**3       RATES FOR THIS TIME STEP      L**3/T          PACKAGE NAME    
     ------------------                 ------------------------                     ----------------

           IN:                                      IN:
           ---                                      ---
              STO-SS =           9.7968                STO-SS =       4.8986E-02     STORAGE                          
              STO-SY =       25392.6080                STO-SY =         142.5620     STORAGE                          
                 WEL =           0.0000                   WEL =           0.0000     WEL-1                            
                 API =       35100.0000                   API =         270.0000     MAR                              
                 CHD =       2.8247E-08                   CHD =           0.0000     CHD_0                            

            TOTAL IN =       60502.4048              TOTAL IN =         412.6110

          OUT:                                     OUT:
          ----                                     ----
              STO-SS =          13.2643                STO-SS =       7.5195E-02     STORAGE                          
              STO-SY =       25389.1405                STO-SY =         142.5358     STORAGE                          
                 WEL =       35100.0000                   WEL =         270.0000     WEL-1                            
                 API =           0.0000                   API =           0.0000     MAR                              
                 CHD =       3.0388E-08                   CHD =           0.0000     CHD_0                            

           TOTAL OUT =       60502.4048             TOTAL OUT =         412.6110

            IN - OUT =      -4.8502E-08              IN - OUT =      -5.0989E-11

 PERCENT DISCREPANCY =          -0.00     PERCENT DISCREPANCY =          -0.00




         TIME SUMMARY AT END OF TIME STEP   13 IN STRESS PERIOD    2
                    SECONDS     MINUTES      HOURS       DAYS        YEARS
                    -----------------------------------------------------------
   TIME STEP LENGTH 8.64000E+05  14400.      240.00      10.000     2.73785E-02
 STRESS PERIOD TIME 1.12320E+07 1.87200E+05  3120.0      130.00     0.35592    
         TOTAL TIME 1.13184E+07 1.88640E+05  3144.0      131.00     0.35866    


end timestep


start timestep kper="2" kstp="14" mode="normal"

 UBDSV1 SAVING           STO-SS ON UNIT   1042 AT TIME STEP     14, STRESS PERIOD      2
 UBDSV1 SAVING           STO-SY ON UNIT   1042 AT TIME STEP     14, STRESS PERIOD      2
 UBDSV1 SAVING     FLOW-JA-FACE ON UNIT   1042 AT TIME STEP     14, STRESS PERIOD      2
 UBDSV06 SAVING       DATA-SPDIS IN MODEL GWF              PACKAGE NPF             CONNECTED TO MODEL GWF              PACKAGE NPF              ON UNIT   1042 AT TIME STEP     14, STRESS PERIOD      2
 UBDSV06 SAVING              WEL IN MODEL GWF              PACKAGE GWF             CONNECTED TO MODEL GWF              PACKAGE WEL-1            ON UNIT   1042 AT TIME STEP     14, STRESS PERIOD      2
 UBDSV06 SAVING              API IN MODEL GWF              PACKAGE GWF             CONNECTED TO MODEL GWF              PACKAGE MAR              ON UNIT   1042 AT TIME STEP     14, STRESS PERIOD      2
 UBDSV06 SAVING              CHD IN MODEL GWF              PACKAGE GWF             CONNECTED TO MODEL GWF              PACKAGE CHD_0            ON UNIT   1042 AT TIME STEP     14, STRESS PERIOD      2

    CALCULATED INTERCELL FLOW FOR PERIOD 2 STEP 14
(1,1,1): (1,1,2) 9.426992E-05 (1,2,1) 1.189646E-04
(1,1,2): (1,1,1) -9.426992E-05 (1,1,3) 3.764010E-04 (1,2,2) 5.459753E-04
(1,1,3): (1,1,2) -3.764010E-04 (1,1,4) 1.065867E-03 (1,2,3) 2.392618E-03
(1,1,4): (1,1,3) -1.065867E-03 (1,1,5) 1.786604E-03 (1,2,4) 8.118495E-03
(1,1,5): (1,1,4) -1.786604E-03 (1,1,6) 6.747196E-04 (1,2,5) 1.862518E-02
(1,1,6): (1,1,5) -6.747196E-04 (1,1,7) -6.746274E-04 (1,2,6) 2.231459E-02
(1,1,7): (1,1,6) 6.746274E-04 (1,1,8) -1.786032E-03 (1,2,7) 1.862549E-02
(1,1,8): (1,1,7) 1.786032E-03 (1,1,9) -1.062267E-03 (1,2,8) 8.120879E-03
(1,1,9): (1,1,8) 1.062267E-03 (1,1,10) -3.564113E-04 (1,2,9) 2.408970E-03
(1,1,10): (1,1,9) 3.564113E-04 (1,2,10) 6.458698E-04
(1,2,1): (1,1,1) -1.189646E-04 (1,2,2) 5.212805E-04 (1,3,1) 5.861049E-04
(1,2,2): (1,1,2) -5.459753E-04 (1,2,1) -5.212805E-04 (1,2,3) 2.223040E-03 (1,3,2) 2.883125E-03
(1,2,3): (1,1,3) -2.392618E-03 (1,2,2) -2.223040E-03 (1,2,4) 6.791668E-03 (1,3,3) 1.355004E-02
(1,2,4): (1,1,4) -8.118495E-03 (1,2,3) -6.791668E-03 (1,2,5) 1.229262E-02 (1,3,4) 4.960666E-02
(1,2,5): (1,1,5) -1.862518E-02 (1,2,4) -1.229262E-02 (1,2,6) 4.363477E-03 (1,3,5) 0.122467
(1,2,6): (1,1,6) -2.231459E-02 (1,2,5) -4.363477E-03 (1,2,7) -4.363072E-03 (1,3,6) 0.145724
(1,2,7): (1,1,7) -1.862549E-02 (1,2,6) 4.363072E-03 (1,2,8) -1.228998E-02 (1,3,7) 0.122469
(1,2,8): (1,1,8) -8.120879E-03 (1,2,7) 1.228998E-02 (1,2,9) -6.774099E-03 (1,3,8) 4.961734E-02
(1,2,9): (1,1,9) -2.408970E-03 (1,2,8) 6.774099E-03 (1,2,10) -2.119506E-03 (1,3,9) 1.362696E-02
(1,2,10): (1,1,10) -6.458698E-04 (1,2,9) 2.119506E-03 (1,3,10) 3.380365E-03
(1,3,1): (1,2,1) -5.861049E-04 (1,3,2) 2.818299E-03 (1,4,1) 2.224781E-03
(1,3,2): (1,2,2) -2.883125E-03 (1,3,1) -2.818299E-03 (1,3,3) 1.288988E-02 (1,4,2) 1.190650E-02
(1,3,3): (1,2,3) -1.355004E-02 (1,3,2) -1.288988E-02 (1,3,4) 4.284586E-02 (1,4,3) 6.114872E-02
(1,3,4): (1,2,4) -4.960666E-02 (1,3,3) -4.284586E-02 (1,3,5) 8.512620E-02 (1,4,4) 0.248093
(1,3,5): (1,2,5) -0.122467 (1,3,4) -8.512620E-02 (1,3,6) 2.759304E-02 (1,4,5) 0.684766
(1,3,6): (1,2,6) -0.145724 (1,3,5) -2.759304E-02 (1,3,7) -2.759129E-02 (1,4,6) 0.801689
(1,3,7): (1,2,7) -0.122469 (1,3,6) 2.759129E-02 (1,3,8) -8.511422E-02 (1,4,7) 0.684771
(1,3,8): (1,2,8) -4.961734E-02 (1,3,7) 8.511422E-02 (1,3,9) -4.276201E-02 (1,4,8) 0.248129
(1,3,9): (1,2,9) -1.362696E-02 (1,3,8) 4.276201E-02 (1,3,10) -1.236598E-02 (1,4,9) 6.142511E-02
(1,3,10): (1,2,10) -3.380365E-03 (1,3,9) 1.236598E-02 (1,4,10) 1.381582E-02
(1,4,1): (1,3,1) -2.224781E-03 (1,4,2) 1.250008E-02 (1,5,1) 5.805756E-03
(1,4,2): (1,3,2) -1.190650E-02 (1,4,1) -1.250008E-02 (1,4,3) 6.213258E-02 (1,5,2) 3.449942E-02
(1,4,3): (1,3,3) -6.114872E-02 (1,4,2) -6.213258E-02 (1,4,4) 0.229756 (1,5,3) 0.199352
(1,4,4): (1,3,4) -0.248093 (1,4,3) -0.229756 (1,4,5) 0.521099 (1,5,4) 0.940277
(1,4,5): (1,3,5) -0.684766 (1,4,4) -0.521099 (1,4,6) 0.143768 (1,5,5) 3.16141
(1,4,6): (1,3,6) -0.801689 (1,4,5) -0.143768 (1,4,7) -0.143761 (1,5,6) 3.55456
(1,4,7): (1,3,7) -0.684771 (1,4,6) 0.143761 (1,4,8) -0.521055 (1,5,7) 3.16142
(1,4,8): (1,3,8) -0.248129 (1,4,7) 0.521055 (1,4,9) -0.229431 (1,5,8) 0.940361
(1,4,9): (1,3,9) -6.142511E-02 (1,4,8) 0.229431 (1,4,10) -5.997458E-02 (1,5,9) 0.200028
(1,4,10): (1,3,10) -1.381582E-02 (1,4,9) 5.997458E-02 (1,5,10) 3.954589E-02
(1,5,1): (1,4,1) -5.805756E-03 (1,5,2) 4.119566E-02 (1,6,1) 6.370553E-03
(1,5,2): (1,4,2) -3.449942E-02 (1,5,1) -4.119566E-02 (1,5,3) 0.227031 (1,6,2) 4.466596E-02
(1,5,3): (1,4,3) -0.199352 (1,5,2) -0.227031 (1,5,4) 0.970901 (1,6,3) 0.316050
(1,5,4): (1,4,4) -0.940277 (1,5,3) -0.970901 (1,5,5) 2.73352 (1,6,4) 1.99859
(1,5,5): (1,4,5) -3.16141 (1,5,4) -2.73352 (1,5,6) 0.526409 (1,6,5) 11.2319
(1,5,6): (1,4,6) -3.55456 (1,5,5) -0.526409 (1,5,7) -0.526392 (1,6,6) 11.2113
(1,5,7): (1,4,7) -3.16142 (1,5,6) 0.526392 (1,5,8) -2.73340 (1,6,7) 11.2319
(1,5,8): (1,4,8) -0.940361 (1,5,7) 2.73340 (1,5,9) -0.969978 (1,6,8) 1.99867
(1,5,9): (1,4,9) -0.200028 (1,5,8) 0.969978 (1,5,10) -0.220489 (1,6,9) 0.316719
(1,5,10): (1,4,10) -3.954589E-02 (1,5,9) 0.220489 (1,6,10) 5.029725E-02
(1,6,1): (1,5,1) -6.370553E-03 (1,6,2) 7.950438E-02 (1,7,1) -1.108521E-02
(1,6,2): (1,5,2) -4.466596E-02 (1,6,1) -7.950438E-02 (1,6,3) 0.498905 (1,7,2) -7.598832E-02
(1,6,3): (1,5,3) -0.316050 (1,6,2) -0.498905 (1,6,4) 2.66391 (1,7,3) -0.521319
(1,6,4): (1,5,4) -1.99859 (1,6,3) -2.66391 (1,6,5) 12.0220 (1,7,4) -3.15697
(1,6,5): (1,5,5) -11.2319 (1,6,4) -12.0220 (1,6,6) 0.511093 (1,7,5) -16.7483
(1,6,6): (1,5,6) -11.2113 (1,6,5) -0.511093 (1,6,7) -0.511066 (1,7,6) -27.8405
(1,6,7): (1,5,7) -11.2319 (1,6,6) 0.511066 (1,6,8) -12.0218 (1,7,7) -16.7484
(1,6,8): (1,5,8) -1.99867 (1,6,7) 12.0218 (1,6,9) -2.66237 (1,7,8) -3.15711
(1,6,9): (1,5,9) -0.316719 (1,6,8) 2.66237 (1,6,10) -0.487360 (1,7,9) -0.522499
(1,6,10): (1,5,10) -5.029725E-02 (1,6,9) 0.487360 (1,7,10) -8.577253E-02
(1,7,1): (1,6,1) 1.108521E-02 (1,7,2) 1.459900E-02 (1,8,1) -8.401197E-03
(1,7,2): (1,6,2) 7.598832E-02 (1,7,1) -1.459900E-02 (1,7,3) 5.367262E-02 (1,8,2) -5.732913E-02
(1,7,3): (1,6,3) 0.521319 (1,7,2) -5.367262E-02 (1,7,4) 4.040532E-02 (1,8,3) -0.392643
(1,7,4): (1,6,4) 3.15697 (1,7,3) -4.040532E-02 (1,7,5) -1.09669 (1,8,4) -2.38149
(1,7,5): (1,6,5) 16.7483 (1,7,4) 1.09669 (1,7,6) -9.11800 (1,8,5) -12.5776
(1,7,6): (1,6,6) 27.8405 (1,7,5) 9.11800 (1,7,7) 9.11801 (1,8,6) -58.1963
(1,7,7): (1,6,7) 16.7484 (1,7,6) -9.11801 (1,7,8) 1.09676 (1,8,7) -12.5776
(1,7,8): (1,6,8) 3.15711 (1,7,7) -1.09676 (1,7,9) -3.993932E-02 (1,8,8) -2.38159
(1,7,9): (1,6,9) 0.522499 (1,7,8) 3.993932E-02 (1,7,10) -5.078508E-02 (1,8,9) -0.393535
(1,7,10): (1,6,10) 8.577253E-02 (1,7,9) 5.078508E-02 (1,8,10) -6.473452E-02
(1,8,1): (1,7,1) 8.401197E-03 (1,8,2) -3.431981E-02 (1,9,1) 7.764824E-03
(1,8,2): (1,7,2) 5.732913E-02 (1,8,1) 3.431981E-02 (1,8,3) -0.281298 (1,9,2) 5.366015E-02
(1,8,3): (1,7,3) 0.392643 (1,8,2) 0.281298 (1,8,4) -1.93986 (1,9,3) 0.372092
(1,8,4): (1,7,4) 2.38149 (1,8,3) 1.93986 (1,8,5) -11.1603 (1,9,4) 2.28692
(1,8,5): (1,7,5) 12.5776 (1,8,4) 11.1603 (1,8,6) -52.9164 (1,9,5) 12.2489
(1,8,6): (1,7,6) 58.1963 (1,8,5) 52.9164 (1,8,7) 52.9164 (1,9,6) 57.6481
(1,8,7): (1,7,7) 12.5776 (1,8,6) -52.9164 (1,8,8) 11.1603 (1,9,7) 12.2489
(1,8,8): (1,7,8) 2.38159 (1,8,7) -11.1603 (1,8,9) 1.93953 (1,9,8) 2.28701
(1,8,9): (1,7,9) 0.393535 (1,8,8) -1.93953 (1,8,10) 0.277661 (1,9,9) 0.372908
(1,8,10): (1,7,10) 6.473452E-02 (1,8,9) -0.277661 (1,9,10) 6.051402E-02
(1,9,1): (1,8,1) -7.764824E-03 (1,9,2) 1.156798E-02 (1,10,1) 1.044786E-02
(1,9,2): (1,8,2) -5.366015E-02 (1,9,1) -1.156798E-02 (1,9,3) 3.685964E-02 (1,10,2) 7.168157E-02
(1,9,3): (1,8,3) -0.372092 (1,9,2) -3.685964E-02 (1,9,4) -3.155390E-02 (1,10,3) 0.491909
(1,9,4): (1,8,4) -2.28692 (1,9,3) 3.155390E-02 (1,9,5) -1.29833 (1,10,4) 2.97840
(1,9,5): (1,8,5) -12.2489 (1,9,4) 1.29833 (1,9,6) -9.15048 (1,10,5) 15.7860
(1,9,6): (1,8,6) -57.6481 (1,9,5) 9.15048 (1,9,7) 9.15049 (1,10,6) 26.6528
(1,9,7): (1,8,7) -12.2489 (1,9,6) -9.15049 (1,9,8) 1.29838 (1,10,7) 15.7860
(1,9,8): (1,8,8) -2.28701 (1,9,7) -1.29838 (1,9,9) 3.195393E-02 (1,10,8) 2.97853
(1,9,9): (1,8,9) -0.372908 (1,9,8) -3.195393E-02 (1,9,10) -3.444825E-02 (1,10,9) 0.493018
(1,9,10): (1,8,10) -6.051402E-02 (1,9,9) 3.444825E-02 (1,10,10) 8.090407E-02
(1,10,1): (1,9,1) -1.044786E-02 (1,10,2) 7.280238E-02 (1,11,1) -5.792674E-03
(1,10,2): (1,9,2) -7.168157E-02 (1,10,1) -7.280238E-02 (1,10,3) 0.456941 (1,11,2) -4.067142E-02
(1,10,3): (1,9,3) -0.491909 (1,10,2) -0.456941 (1,10,4) 2.44242 (1,11,3) -0.288330
(1,10,4): (1,9,4) -2.97840 (1,10,3) -2.44242 (1,10,5) 11.0604 (1,11,4) -1.82892
(1,10,5): (1,9,5) -15.7860 (1,10,4) -11.0604 (1,10,6) 0.346930 (1,11,5) -10.3277
(1,10,6): (1,9,6) -26.6528 (1,10,5) -0.346930 (1,10,7) -0.346905 (1,11,6) -10.1967
(1,10,7): (1,9,7) -15.7860 (1,10,6) 0.346905 (1,10,8) -11.0602 (1,11,7) -10.3277
(1,10,8): (1,9,8) -2.97853 (1,10,7) 11.0602 (1,10,9) -2.44101 (1,11,8) -1.82899
(1,10,9): (1,9,9) -0.493018 (1,10,8) 2.44101 (1,10,10) -0.446372 (1,11,9) -0.288938
(1,10,10): (1,9,10) -8.090407E-02 (1,10,9) 0.446372 (1,11,10) -4.579221E-02
(1,11,1): (1,10,1) 5.792674E-03 (1,11,2) 3.791244E-02 (1,12,1) -5.339934E-03
(1,11,2): (1,10,2) 4.067142E-02 (1,11,1) -3.791244E-02 (1,11,3) 0.208870 (1,12,2) -3.172658E-02
(1,11,3): (1,10,3) 0.288330 (1,11,2) -0.208870 (1,11,4) 0.892946 (1,12,3) -0.183299
(1,11,4): (1,10,4) 1.82892 (1,11,3) -0.892946 (1,11,5) 2.51357 (1,12,4) -0.864455
(1,11,5): (1,10,5) 10.3277 (1,11,4) -2.51357 (1,11,6) 0.465662 (1,12,5) -2.90604
(1,11,6): (1,10,6) 10.1967 (1,11,5) -0.465662 (1,11,7) -0.465647 (1,12,6) -3.25037
(1,11,7): (1,10,7) 10.3277 (1,11,6) 0.465647 (1,11,8) -2.51346 (1,12,7) -2.90605
(1,11,8): (1,10,8) 1.82899 (1,11,7) 2.51346 (1,11,9) -0.892097 (1,12,8) -0.864533
(1,11,9): (1,10,9) 0.288938 (1,11,8) 0.892097 (1,11,10) -0.202849 (1,12,9) -0.183920
(1,11,10): (1,10,10) 4.579221E-02 (1,11,9) 0.202849 (1,12,10) -3.636782E-02
(1,12,1): (1,11,1) 5.339934E-03 (1,12,2) 1.152417E-02 (1,13,1) -2.051238E-03
(1,12,2): (1,11,2) 3.172658E-02 (1,12,1) -1.152417E-02 (1,12,3) 5.725818E-02 (1,13,2) -1.097460E-02
(1,12,3): (1,11,3) 0.183299 (1,12,2) -5.725818E-02 (1,12,4) 0.211601 (1,13,3) -5.634218E-02
(1,12,4): (1,11,4) 0.864455 (1,12,3) -0.211601 (1,12,5) 0.479382 (1,13,4) -0.228474
(1,12,5): (1,11,5) 2.90604 (1,12,4) -0.479382 (1,12,6) 0.129875 (1,13,5) -0.630071
(1,12,6): (1,11,6) 3.25037 (1,12,5) -0.129875 (1,12,7) -0.129869 (1,13,6) -0.735432
(1,12,7): (1,11,7) 2.90605 (1,12,6) 0.129869 (1,12,8) -0.479341 (1,13,7) -0.630075
(1,12,8): (1,11,8) 0.864533 (1,12,7) 0.479341 (1,12,9) -0.211302 (1,13,8) -0.228507
(1,12,9): (1,11,9) 0.183920 (1,12,8) 0.211302 (1,12,10) -5.526811E-02 (1,13,9) -5.659699E-02
(1,12,10): (1,11,10) 3.636782E-02 (1,12,9) 5.526811E-02 (1,13,10) -1.273487E-02
(1,13,1): (1,12,1) 2.051238E-03 (1,13,2) 2.600754E-03 (1,14,1) -5.409860E-04
(1,13,2): (1,12,2) 1.097460E-02 (1,13,1) -2.600754E-03 (1,13,3) 1.189019E-02 (1,14,2) -2.660398E-03
(1,13,3): (1,12,3) 5.634218E-02 (1,13,2) -1.189019E-02 (1,13,4) 3.949822E-02 (1,14,3) -1.249866E-02
(1,13,4): (1,12,4) 0.228474 (1,13,3) -3.949822E-02 (1,13,5) 7.837975E-02 (1,14,4) -4.573342E-02
(1,13,5): (1,12,5) 0.630071 (1,13,4) -7.837975E-02 (1,13,6) 2.513499E-02 (1,14,5) -0.112808
(1,13,6): (1,12,6) 0.735432 (1,13,5) -2.513499E-02 (1,13,7) -2.513337E-02 (1,14,6) -0.133973
(1,13,7): (1,12,7) 0.630075 (1,13,6) 2.513337E-02 (1,13,8) -7.836869E-02 (1,14,7) -0.112810
(1,13,8): (1,12,8) 0.228507 (1,13,7) 7.836869E-02 (1,13,9) -3.942081E-02 (1,14,8) -4.574328E-02
(1,13,9): (1,12,9) 5.659699E-02 (1,13,8) 3.942081E-02 (1,13,10) -1.140658E-02 (1,14,9) -1.256967E-02
(1,13,10): (1,12,10) 1.273487E-02 (1,13,9) 1.140658E-02 (1,14,10) -3.119337E-03
(1,14,1): (1,13,1) 5.409860E-04 (1,14,2) 4.813435E-04 (1,15,1) -1.098775E-04
(1,14,2): (1,13,2) 2.660398E-03 (1,14,1) -4.813435E-04 (1,14,3) 2.051992E-03 (1,15,2) -5.041328E-04
(1,14,3): (1,13,3) 1.249866E-02 (1,14,2) -2.051992E-03 (1,14,4) 6.265524E-03 (1,15,3) -2.208506E-03
(1,14,4): (1,13,4) 4.573342E-02 (1,14,3) -6.265524E-03 (1,14,5) 1.132786E-02 (1,15,4) -7.490215E-03
(1,14,5): (1,13,5) 0.112808 (1,14,4) -1.132786E-02 (1,14,6) 3.992858E-03 (1,15,5) -1.717103E-02
(1,14,6): (1,13,6) 0.133973 (1,14,5) -3.992858E-03 (1,14,7) -3.992482E-03 (1,15,6) -2.054519E-02
(1,14,7): (1,13,7) 0.112810 (1,14,6) 3.992482E-03 (1,14,8) -1.132542E-02 (1,15,7) -1.717132E-02
(1,14,8): (1,13,8) 4.574328E-02 (1,14,7) 1.132542E-02 (1,14,9) -6.249293E-03 (1,15,8) -7.492417E-03
(1,14,9): (1,13,9) 1.256967E-02 (1,14,8) 6.249293E-03 (1,14,10) -1.956363E-03 (1,15,9) -2.223610E-03
(1,14,10): (1,13,10) 3.119337E-03 (1,14,9) 1.956363E-03 (1,15,10) -5.963927E-04
(1,15,1): (1,14,1) 1.098775E-04 (1,15,2) 8.708820E-05
(1,15,2): (1,14,2) 5.041328E-04 (1,15,1) -8.708820E-05 (1,15,3) 3.476213E-04
(1,15,3): (1,14,3) 2.208506E-03 (1,15,2) -3.476213E-04 (1,15,4) 9.838805E-04
(1,15,4): (1,14,4) 7.490215E-03 (1,15,3) -9.838805E-04 (1,15,5) 1.647615E-03
(1,15,5): (1,14,5) 1.717103E-02 (1,15,4) -1.647615E-03 (1,15,6) 6.192564E-04
(1,15,6): (1,14,6) 2.054519E-02 (1,15,5) -6.192564E-04 (1,15,7) -6.191697E-04
(1,15,7): (1,14,7) 1.717132E-02 (1,15,6) 6.191697E-04 (1,15,8) -1.647085E-03
(1,15,8): (1,14,8) 7.492417E-03 (1,15,7) 1.647085E-03 (1,15,9) -9.805519E-04
(1,15,9): (1,14,9) 2.223610E-03 (1,15,8) 9.805519E-04 (1,15,10) -3.291499E-04
(1,15,10): (1,14,10) 5.963927E-04 (1,15,9) 3.291499E-04

 WEL PACKAGE (WEL-1) FLOW RATES   PERIOD      2   STEP       14
 ----------------------------------------------------------------------------------------
   NUMBER   CELLID                    RATE       NAME                                    
 ----------------------------------------------------------------------------------------
     1      (1,8,6)              -270.00000      WEL                                     
 ----------------------------------------------------------------------------------------




 API PACKAGE (MAR) FLOW RATES   PERIOD      2   STEP       14
 -----------------------------------------------
   NUMBER   CELLID                    RATE      
 -----------------------------------------------
     1      (1,6,5)               46.666667     
     2      (1,6,6)               46.666667     
     3      (1,6,7)               46.666667     
     4      (1,10,5)              43.333333     
     5      (1,10,6)              43.333333     
     6      (1,10,7)              43.333333     
 -----------------------------------------------



1
  HEAD IN LAYER   1 AT END OF TIME STEP  14 IN STRESS PERIOD    2
  ---------------------------------------------------------------------------

            1           2           3           4           5           6           7           8           9          10
 ........................................................................................................................
   1   2.9292E-06  1.2356E-05  4.9996E-05  1.5658E-04  3.3524E-04  4.0270E-04  3.3524E-04  1.5665E-04  5.0423E-05  1.4782E-05
   2   1.4826E-05  6.6953E-05  2.8925E-04  9.6835E-04  2.1973E-03  2.6336E-03  2.1974E-03  9.6866E-04  2.9131E-04  7.9368E-05
   3   7.3436E-05  3.5526E-04  1.6440E-03  5.9261E-03  1.4426E-02  1.7181E-02  1.4427E-02  5.9275E-03  1.6538E-03  4.1739E-04
   4   2.9591E-04  1.5457E-03  7.7542E-03  3.0660E-02  8.2344E-02  9.6583E-02  8.2344E-02  3.0664E-02  7.7915E-03  1.7987E-03
   5   8.7643E-04  4.9939E-03  2.7634E-02  0.1235      0.3867      0.4372      0.3867      0.1236      2.7739E-02  5.7510E-03
   6   1.5134E-03  9.4563E-03  5.9054E-02  0.3173       1.374       1.419       1.374      0.3173      5.9224E-02  1.0775E-02
   7   4.0504E-04  1.8647E-03  7.2281E-03  1.1264E-02 -9.8282E-02  -1.019     -9.8281E-02  1.1272E-02  7.2821E-03  2.2073E-03
   8  -4.3505E-04 -3.8672E-03 -3.2008E-02 -0.2266      -1.369      -7.499      -1.369     -0.2266     -3.2043E-02 -4.2647E-03
   9   3.4141E-04  1.4980E-03  5.1821E-03  2.0283E-03 -0.1278      -1.055     -0.1278      2.0349E-03  5.2287E-03  1.7856E-03
  10   1.3860E-03  8.6600E-03  5.4108E-02  0.2914       1.273       1.303       1.273      0.2915      5.4264E-02  9.8681E-03
  11   8.0686E-04  4.5964E-03  2.5430E-02  0.1137      0.3564      0.4012      0.3564      0.1137      2.5527E-02  5.2934E-03
  12   2.7291E-04  1.4252E-03  7.1469E-03  2.8247E-02  7.5825E-02  8.8698E-02  7.5825E-02  2.8252E-02  7.1813E-03  1.6585E-03
  13   6.7793E-05  3.2786E-04  1.5167E-03  5.4644E-03  1.3292E-02  1.5801E-02  1.3292E-02  5.4656E-03  1.5257E-03  3.8522E-04
  14   1.3695E-05  6.1829E-05  2.6702E-04  8.9352E-04  2.0261E-03  2.4253E-03  2.0261E-03  8.9380E-04  2.6893E-04  7.3296E-05
  15   2.7068E-06  1.1416E-05  4.6178E-05  1.4456E-04  3.0932E-04  3.7124E-04  3.0933E-04  1.4463E-04  4.6572E-05  1.3657E-05

 HEAD WILL BE SAVED ON UNIT 1043 AT END OF TIME STEP   14, STRESS PERIOD    2


  VOLUME BUDGET FOR ENTIRE MODEL AT END OF TIME STEP   14, STRESS PERIOD   2
  ---------------------------------------------------------------------------------------------------

     CUMULATIVE VOLUME      L**3       RATES FOR THIS TIME STEP      L**3/T          PACKAGE NAME    
     ------------------                 ------------------------                     ----------------

           IN:                                      IN:
           ---                                      ---
              STO-SS =          10.2636                STO-SS =       4.6675E-02     STORAGE                          
              STO-SY =       26756.1436                STO-SY =         136.3536     STORAGE                          
                 WEL =           0.0000                   WEL =           0.0000     WEL-1                            
                 API =       37800.0000                   API =         270.0000     MAR                              
                 CHD =       2.8247E-08                   CHD =           0.0000     CHD_0                            

            TOTAL IN =       64566.4072              TOTAL IN =         406.4002

          OUT:                                     OUT:
          ----                                     ----
              STO-SS =          13.9825                STO-SS =       7.1820E-02     STORAGE                          
              STO-SY =       26752.4247                STO-SY =         136.3284     STORAGE                          
                 WEL =       37800.0000                   WEL =         270.0000     WEL-1                            
                 API =           0.0000                   API =           0.0000     MAR                              
                 CHD =       3.0388E-08                   CHD =           0.0000     CHD_0                            

           TOTAL OUT =       64566.4072             TOTAL OUT =         406.4002

            IN - OUT =      -4.8793E-08              IN - OUT =      -2.9331E-11

 PERCENT DISCREPANCY =          -0.00     PERCENT DISCREPANCY =          -0.00




         TIME SUMMARY AT END OF TIME STEP   14 IN STRESS PERIOD    2
                    SECONDS     MINUTES      HOURS       DAYS        YEARS
                    -----------------------------------------------------------
   TIME STEP LENGTH 8.64000E+05  14400.      240.00      10.000     2.73785E-02
 STRESS PERIOD TIME 1.20960E+07 2.01600E+05  3360.0      140.00     0.38330    
         TOTAL TIME 1.21824E+07 2.03040E+05  3384.0      141.00     0.38604    


end timestep


start timestep kper="2" kstp="15" mode="normal"

 UBDSV1 SAVING           STO-SS ON UNIT   1042 AT TIME STEP     15, STRESS PERIOD      2
 UBDSV1 SAVING           STO-SY ON UNIT   1042 AT TIME STEP     15, STRESS PERIOD      2
 UBDSV1 SAVING     FLOW-JA-FACE ON UNIT   1042 AT TIME STEP     15, STRESS PERIOD      2
 UBDSV06 SAVING       DATA-SPDIS IN MODEL GWF              PACKAGE NPF             CONNECTED TO MODEL GWF              PACKAGE NPF              ON UNIT   1042 AT TIME STEP     15, STRESS PERIOD      2
 UBDSV06 SAVING              WEL IN MODEL GWF              PACKAGE GWF             CONNECTED TO MODEL GWF              PACKAGE WEL-1            ON UNIT   1042 AT TIME STEP     15, STRESS PERIOD      2
 UBDSV06 SAVING              API IN MODEL GWF              PACKAGE GWF             CONNECTED TO MODEL GWF              PACKAGE MAR              ON UNIT   1042 AT TIME STEP     15, STRESS PERIOD      2
 UBDSV06 SAVING              CHD IN MODEL GWF              PACKAGE GWF             CONNECTED TO MODEL GWF              PACKAGE CHD_0            ON UNIT   1042 AT TIME STEP     15, STRESS PERIOD      2

    CALCULATED INTERCELL FLOW FOR PERIOD 2 STEP 15
(1,1,1): (1,1,2) 1.358912E-04 (1,2,1) 1.713931E-04
(1,1,2): (1,1,1) -1.358912E-04 (1,1,3) 5.230918E-04 (1,2,2) 7.529229E-04
(1,1,3): (1,1,2) -5.230918E-04 (1,1,4) 1.425212E-03 (1,2,3) 3.173253E-03
(1,1,4): (1,1,3) -1.425212E-03 (1,1,5) 2.308797E-03 (1,2,4) 1.038202E-02
(1,1,5): (1,1,4) -2.308797E-03 (1,1,6) 8.852391E-04 (1,2,5) 2.313741E-02
(1,1,6): (1,1,5) -8.852391E-04 (1,1,7) -8.850833E-04 (1,2,6) 2.769627E-02
(1,1,7): (1,1,6) 8.850833E-04 (1,1,8) -2.307870E-03 (1,2,7) 2.313791E-02
(1,1,8): (1,1,7) 2.307870E-03 (1,1,9) -1.419597E-03 (1,2,8) 1.038570E-02
(1,1,9): (1,1,8) 1.419597E-03 (1,1,10) -4.931031E-04 (1,2,9) 3.197566E-03
(1,1,10): (1,1,9) 4.931031E-04 (1,2,10) 8.957868E-04
(1,2,1): (1,1,1) -1.713931E-04 (1,2,2) 7.174207E-04 (1,3,1) 8.103471E-04
(1,2,2): (1,1,2) -7.529229E-04 (1,2,1) -7.174207E-04 (1,2,3) 2.943416E-03 (1,3,2) 3.808008E-03
(1,2,3): (1,1,3) -3.173253E-03 (1,2,2) -2.943416E-03 (1,2,4) 8.633850E-03 (1,3,3) 1.717764E-02
(1,2,4): (1,1,4) -1.038202E-02 (1,2,3) -8.633850E-03 (1,2,5) 1.506316E-02 (1,3,4) 6.050118E-02
(1,2,5): (1,1,5) -2.313741E-02 (1,2,4) -1.506316E-02 (1,2,6) 5.443091E-03 (1,3,5) 0.144715
(1,2,6): (1,1,6) -2.769627E-02 (1,2,5) -5.443091E-03 (1,2,7) -5.442434E-03 (1,3,6) 0.172130
(1,2,7): (1,1,7) -2.313791E-02 (1,2,6) 5.442434E-03 (1,2,8) -1.505905E-02 (1,3,7) 0.144718
(1,2,8): (1,1,8) -1.038570E-02 (1,2,7) 1.505905E-02 (1,2,9) -8.607602E-03 (1,3,8) 6.051707E-02
(1,2,9): (1,1,9) -3.197566E-03 (1,2,8) 8.607602E-03 (1,2,10) -2.794873E-03 (1,3,9) 1.728763E-02
(1,2,10): (1,1,10) -8.957868E-04 (1,2,9) 2.794873E-03 (1,3,10) 4.490551E-03
(1,3,1): (1,2,1) -8.103471E-04 (1,3,2) 3.715079E-03 (1,4,1) 2.938652E-03
(1,3,2): (1,2,2) -3.808008E-03 (1,3,1) -3.715079E-03 (1,3,3) 1.631293E-02 (1,4,2) 1.499660E-02
(1,3,3): (1,2,3) -1.717764E-02 (1,3,2) -1.631293E-02 (1,3,4) 5.195369E-02 (1,4,3) 7.379234E-02
(1,3,4): (1,2,4) -6.050118E-02 (1,3,3) -5.195369E-02 (1,3,5) 9.923931E-02 (1,4,4) 0.287469
(1,3,5): (1,2,5) -0.144715 (1,3,4) -9.923931E-02 (1,3,6) 3.281959E-02 (1,4,5) 0.766836
(1,3,6): (1,2,6) -0.172130 (1,3,5) -3.281959E-02 (1,3,7) -3.281685E-02 (1,4,6) 0.897656
(1,3,7): (1,2,7) -0.144718 (1,3,6) 3.281685E-02 (1,3,8) -9.922138E-02 (1,4,7) 0.766843
(1,3,8): (1,2,8) -6.051707E-02 (1,3,7) 9.922138E-02 (1,3,9) -5.183330E-02 (1,4,8) 0.287521
(1,3,9): (1,2,9) -1.728763E-02 (1,3,8) 5.183330E-02 (1,3,10) -1.559174E-02 (1,4,9) 7.417074E-02
(1,3,10): (1,2,10) -4.490551E-03 (1,3,9) 1.559174E-02 (1,4,10) 1.750109E-02
(1,4,1): (1,3,1) -2.938652E-03 (1,4,2) 1.577312E-02 (1,5,1) 7.292486E-03
(1,4,2): (1,3,2) -1.499660E-02 (1,4,1) -1.577312E-02 (1,4,3) 7.510944E-02 (1,5,2) 4.125726E-02
(1,4,3): (1,3,3) -7.379234E-02 (1,4,2) -7.510944E-02 (1,4,4) 0.265584 (1,5,3) 0.228123
(1,4,4): (1,3,4) -0.287469 (1,4,3) -0.265584 (1,4,5) 0.577719 (1,5,4) 1.03208
(1,4,5): (1,3,5) -0.766836 (1,4,4) -0.577719 (1,4,6) 0.162707 (1,5,5) 3.35002
(1,4,6): (1,3,6) -0.897656 (1,4,5) -0.162707 (1,4,7) -0.162698 (1,5,6) 3.76255
(1,4,7): (1,3,7) -0.766843 (1,4,6) 0.162698 (1,4,8) -0.577656 (1,5,7) 3.35004
(1,4,8): (1,3,8) -0.287521 (1,4,7) 0.577656 (1,4,9) -0.265136 (1,5,8) 1.03220
(1,4,9): (1,3,9) -7.417074E-02 (1,4,8) 0.265136 (1,4,10) -7.226030E-02 (1,5,9) 0.229004
(1,4,10): (1,3,10) -1.750109E-02 (1,4,9) 7.226030E-02 (1,5,10) 4.755432E-02
(1,5,1): (1,4,1) -7.292486E-03 (1,5,2) 4.974077E-02 (1,6,1) 7.421914E-03
(1,5,2): (1,4,2) -4.125726E-02 (1,5,1) -4.974077E-02 (1,5,3) 0.262038 (1,6,2) 4.962331E-02
(1,5,3): (1,4,3) -0.228123 (1,5,2) -0.262038 (1,5,4) 1.06984 (1,6,3) 0.337157
(1,5,4): (1,4,4) -1.03208 (1,5,3) -1.06984 (1,5,5) 2.88586 (1,6,4) 2.05884
(1,5,5): (1,4,5) -3.35002 (1,5,4) -2.88586 (1,5,6) 0.563697 (1,6,5) 11.2998
(1,5,6): (1,4,6) -3.76255 (1,5,5) -0.563697 (1,5,7) -0.563673 (1,6,6) 11.1999
(1,5,7): (1,4,7) -3.35004 (1,5,6) 0.563673 (1,5,8) -2.88569 (1,6,7) 11.2998
(1,5,8): (1,4,8) -1.03220 (1,5,7) 2.88569 (1,5,9) -1.06861 (1,6,8) 2.05894
(1,5,9): (1,4,9) -0.229004 (1,5,8) 1.06861 (1,5,10) -0.253755 (1,6,9) 0.337968
(1,5,10): (1,4,10) -4.755432E-02 (1,5,9) 0.253755 (1,6,10) 5.614546E-02
(1,6,1): (1,5,1) -7.421914E-03 (1,6,2) 9.195999E-02 (1,7,1) -1.363855E-02
(1,6,2): (1,5,2) -4.962331E-02 (1,6,1) -9.195999E-02 (1,6,3) 0.550176 (1,7,2) -8.898455E-02
(1,6,3): (1,5,3) -0.337157 (1,6,2) -0.550176 (1,6,4) 2.80346 (1,7,3) -0.583849
(1,6,4): (1,5,4) -2.05884 (1,6,3) -2.80346 (1,6,5) 12.1885 (1,7,4) -3.39083
(1,6,5): (1,5,5) -11.2998 (1,6,4) -12.1885 (1,6,6) 0.475347 (1,7,5) -17.3784
(1,6,6): (1,5,6) -11.1999 (1,6,5) -0.475347 (1,6,7) -0.475309 (1,7,6) -28.8876
(1,6,7): (1,5,7) -11.2998 (1,6,6) 0.475309 (1,6,8) -12.1882 (1,7,7) -17.3784
(1,6,8): (1,5,8) -2.05894 (1,6,7) 12.1882 (1,6,9) -2.80148 (1,7,8) -3.39102
(1,6,9): (1,5,9) -0.337968 (1,6,8) 2.80148 (1,6,10) -0.536128 (1,7,9) -0.585359
(1,6,10): (1,5,10) -5.614546E-02 (1,6,9) 0.536128 (1,7,10) -0.100952
(1,7,1): (1,6,1) 1.363855E-02 (1,7,2) 1.661175E-02 (1,8,1) -1.042569E-02
(1,7,2): (1,6,2) 8.898455E-02 (1,7,1) -1.661175E-02 (1,7,3) 5.547535E-02 (1,8,2) -6.776588E-02
(1,7,3): (1,6,3) 0.583849 (1,7,2) -5.547535E-02 (1,7,4) 1.181857E-02 (1,8,3) -0.444117
(1,7,4): (1,6,4) 3.39083 (1,7,3) -1.181857E-02 (1,7,5) -1.27116 (1,8,4) -2.58310
(1,7,5): (1,6,5) 17.3784 (1,7,4) 1.27116 (1,7,6) -9.47058 (1,8,5) -13.1474
(1,7,6): (1,6,6) 28.8876 (1,7,5) 9.47058 (1,7,7) 9.47059 (1,8,6) -59.3060
(1,7,7): (1,6,7) 17.3784 (1,7,6) -9.47059 (1,7,8) 1.27125 (1,8,7) -13.1474
(1,7,8): (1,6,8) 3.39102 (1,7,7) -1.27125 (1,7,9) -1.121673E-02 (1,8,8) -2.58323
(1,7,9): (1,6,9) 0.585359 (1,7,8) 1.121673E-02 (1,7,10) -5.195534E-02 (1,8,9) -0.445267
(1,7,10): (1,6,10) 0.100952 (1,7,9) 5.195534E-02 (1,8,10) -7.690157E-02
(1,8,1): (1,7,1) 1.042569E-02 (1,8,2) -4.071571E-02 (1,9,1) 9.608302E-03
(1,8,2): (1,7,2) 6.776588E-02 (1,8,1) 4.071571E-02 (1,8,3) -0.320443 (1,9,2) 6.328372E-02
(1,8,3): (1,7,3) 0.444117 (1,8,2) 0.320443 (1,8,4) -2.11743 (1,9,3) 0.420123
(1,8,4): (1,7,4) 2.58310 (1,8,3) 2.11743 (1,8,5) -11.6949 (1,9,4) 2.47728
(1,8,5): (1,7,5) 13.1474 (1,8,4) 11.6949 (1,8,6) -53.6513 (1,9,5) 12.7925
(1,8,6): (1,7,6) 59.3060 (1,8,5) 53.6513 (1,8,7) 53.6513 (1,9,6) 58.7109
(1,8,7): (1,7,7) 13.1474 (1,8,6) -53.6513 (1,8,8) 11.6949 (1,9,7) 12.7925
(1,8,8): (1,7,8) 2.58323 (1,8,7) -11.6949 (1,8,9) 2.11701 (1,9,8) 2.47741
(1,8,9): (1,7,9) 0.445267 (1,8,8) -2.11701 (1,8,10) 0.315963 (1,9,9) 0.421172
(1,8,10): (1,7,10) 7.690157E-02 (1,8,9) -0.315963 (1,9,10) 7.171577E-02
(1,9,1): (1,8,1) -9.608302E-03 (1,9,2) 1.294929E-02 (1,10,1) 1.286252E-02
(1,9,2): (1,8,2) -6.328372E-02 (1,9,1) -1.294929E-02 (1,9,3) 3.605564E-02 (1,10,2) 8.401097E-02
(1,9,3): (1,8,3) -0.420123 (1,9,2) -3.605564E-02 (1,9,4) -6.751989E-02 (1,10,3) 0.551443
(1,9,4): (1,8,4) -2.47728 (1,9,3) 6.751989E-02 (1,9,5) -1.48412 (1,10,4) 3.20234
(1,9,5): (1,8,5) -12.7925 (1,9,4) 1.48412 (1,9,6) -9.50486 (1,10,5) 16.3944
(1,9,6): (1,8,6) -58.7109 (1,9,5) 9.50486 (1,9,7) 9.50487 (1,10,6) 27.6682
(1,9,7): (1,8,7) -12.7925 (1,9,6) -9.50487 (1,9,8) 1.48420 (1,10,7) 16.3945
(1,9,8): (1,8,8) -2.47741 (1,9,7) -1.48420 (1,9,9) 6.803460E-02 (1,10,8) 3.20251
(1,9,9): (1,8,9) -0.421172 (1,9,8) -6.803460E-02 (1,9,10) -3.313858E-02 (1,10,9) 0.552864
(1,9,10): (1,8,10) -7.171577E-02 (1,9,9) 3.313858E-02 (1,10,10) 9.529843E-02
(1,10,1): (1,9,1) -1.286252E-02 (1,10,2) 8.409779E-02 (1,11,1) -6.729267E-03
(1,10,2): (1,9,2) -8.401097E-02 (1,10,1) -8.409779E-02 (1,10,3) 0.503265 (1,11,2) -4.506800E-02
(1,10,3): (1,9,3) -0.551443 (1,10,2) -0.503265 (1,10,4) 2.56767 (1,11,3) -0.306921
(1,10,4): (1,9,4) -3.20234 (1,10,3) -2.56767 (1,10,5) 11.2066 (1,11,4) -1.88120
(1,10,5): (1,9,5) -16.3944 (1,10,4) -11.2066 (1,10,6) 0.304195 (1,11,5) -10.3821
(1,10,6): (1,9,6) -27.6682 (1,10,5) -0.304195 (1,10,7) -0.304161 (1,11,6) -10.1705
(1,10,7): (1,9,7) -16.3945 (1,10,6) 0.304161 (1,10,8) -11.2064 (1,11,7) -10.3821
(1,10,8): (1,9,8) -3.20251 (1,10,7) 11.2064 (1,10,9) -2.56587 (1,11,8) -1.88129
(1,10,9): (1,9,9) -0.552864 (1,10,8) 2.56587 (1,10,10) -0.490422 (1,11,9) -0.307654
(1,10,10): (1,9,10) -9.529843E-02 (1,10,9) 0.490422 (1,11,10) -5.098191E-02
(1,11,1): (1,10,1) 6.729267E-03 (1,11,2) 4.574413E-02 (1,12,1) -6.701701E-03
(1,11,2): (1,10,2) 4.506800E-02 (1,11,1) -4.574413E-02 (1,11,3) 0.240905 (1,12,2) -3.790914E-02
(1,11,3): (1,10,3) 0.306921 (1,11,2) -0.240905 (1,11,4) 0.983272 (1,12,3) -0.209580
(1,11,4): (1,10,4) 1.88120 (1,11,3) -0.983272 (1,11,5) 2.65204 (1,12,4) -0.948138
(1,11,5): (1,10,5) 10.3821 (1,11,4) -2.65204 (1,11,6) 0.497577 (1,12,5) -3.07734
(1,11,6): (1,10,6) 10.1705 (1,11,5) -0.497577 (1,11,7) -0.497555 (1,12,6) -3.43743
(1,11,7): (1,10,7) 10.3821 (1,11,6) 0.497555 (1,11,8) -2.65189 (1,12,7) -3.07735
(1,11,8): (1,10,8) 1.88129 (1,11,7) 2.65189 (1,11,9) -0.982146 (1,12,8) -0.948244
(1,11,9): (1,10,9) 0.307654 (1,11,8) 0.982146 (1,11,10) -0.233286 (1,12,9) -0.210390
(1,11,10): (1,10,10) 5.098191E-02 (1,11,9) 0.233286 (1,12,10) -4.369559E-02
(1,12,1): (1,11,1) 6.701701E-03 (1,12,2) 1.453425E-02 (1,13,1) -2.707989E-03
(1,12,2): (1,11,2) 3.790914E-02 (1,12,1) -1.453425E-02 (1,12,3) 6.918010E-02 (1,13,2) -1.381525E-02
(1,12,3): (1,11,3) 0.209580 (1,12,2) -6.918010E-02 (1,12,4) 0.244462 (1,13,3) -6.795351E-02
(1,12,4): (1,11,4) 0.948138 (1,12,3) -0.244462 (1,12,5) 0.531146 (1,13,4) -0.264583
(1,12,5): (1,11,5) 3.07734 (1,12,4) -0.531146 (1,12,6) 0.146833 (1,13,5) -0.705157
(1,12,6): (1,11,6) 3.43743 (1,12,5) -0.146833 (1,12,7) -0.146825 (1,13,6) -0.822889
(1,12,7): (1,11,7) 3.07735 (1,12,6) 0.146825 (1,12,8) -0.531088 (1,13,7) -0.705163
(1,12,8): (1,11,8) 0.948244 (1,12,7) 0.531088 (1,12,9) -0.244049 (1,13,8) -0.264631
(1,12,9): (1,11,9) 0.210390 (1,12,8) 0.244049 (1,12,10) -6.655399E-02 (1,13,9) -6.830217E-02
(1,12,10): (1,11,10) 4.369559E-02 (1,12,9) 6.655399E-02 (1,13,10) -1.612299E-02
(1,13,1): (1,12,1) 2.707989E-03 (1,13,2) 3.426903E-03 (1,14,1) -7.476650E-04
(1,13,2): (1,12,2) 1.381525E-02 (1,13,1) -3.426903E-03 (1,13,3) 1.504118E-02 (1,14,2) -3.512344E-03
(1,13,3): (1,12,3) 6.795351E-02 (1,13,2) -1.504118E-02 (1,13,4) 4.787152E-02 (1,14,3) -1.583770E-02
(1,13,4): (1,12,4) 0.264583 (1,13,3) -4.787152E-02 (1,13,5) 9.132330E-02 (1,14,4) -5.575067E-02
(1,13,5): (1,12,5) 0.705157 (1,13,4) -9.132330E-02 (1,13,6) 2.987442E-02 (1,14,5) -0.133232
(1,13,6): (1,12,6) 0.822889 (1,13,5) -2.987442E-02 (1,13,7) -2.987189E-02 (1,14,6) -0.158160
(1,13,7): (1,12,7) 0.705163 (1,13,6) 2.987189E-02 (1,13,8) -9.130675E-02 (1,14,7) -0.133234
(1,13,8): (1,12,8) 0.264631 (1,13,7) 9.130675E-02 (1,13,9) -4.776041E-02 (1,14,8) -5.576534E-02
(1,13,9): (1,12,9) 6.830217E-02 (1,13,8) 4.776041E-02 (1,13,10) -1.437572E-02 (1,14,9) -1.593919E-02
(1,13,10): (1,12,10) 1.612299E-02 (1,13,9) 1.437572E-02 (1,14,10) -4.142054E-03
(1,14,1): (1,13,1) 7.476650E-04 (1,14,2) 6.622268E-04 (1,15,1) -1.582481E-04
(1,14,2): (1,13,2) 3.512344E-03 (1,14,1) -6.622268E-04 (1,14,3) 2.715923E-03 (1,15,2) -6.949729E-04
(1,14,3): (1,13,3) 1.583770E-02 (1,14,2) -2.715923E-03 (1,14,4) 7.961683E-03 (1,15,3) -2.927960E-03
(1,14,4): (1,13,4) 5.575067E-02 (1,14,3) -7.961683E-03 (1,14,5) 1.387413E-02 (1,15,4) -9.574640E-03
(1,14,5): (1,13,5) 0.133232 (1,14,4) -1.387413E-02 (1,14,6) 4.978016E-03 (1,15,5) -2.132136E-02
(1,14,6): (1,13,6) 0.158160 (1,14,5) -4.978016E-03 (1,14,7) -4.977408E-03 (1,15,6) -2.548812E-02
(1,14,7): (1,13,7) 0.133234 (1,14,6) 4.977408E-03 (1,14,8) -1.387033E-02 (1,15,7) -2.132183E-02
(1,14,8): (1,13,8) 5.576534E-02 (1,14,7) 1.387033E-02 (1,14,9) -7.937441E-03 (1,15,8) -9.578040E-03
(1,14,9): (1,13,9) 1.593919E-02 (1,14,8) 7.937441E-03 (1,14,10) -2.578767E-03 (1,15,9) -2.950411E-03
(1,14,10): (1,13,10) 4.142054E-03 (1,14,9) 2.578767E-03 (1,15,10) -8.268732E-04
(1,15,1): (1,14,1) 1.582481E-04 (1,15,2) 1.255021E-04
(1,15,2): (1,14,2) 6.949729E-04 (1,15,1) -1.255021E-04 (1,15,3) 4.829409E-04
(1,15,3): (1,14,3) 2.927960E-03 (1,15,2) -4.829409E-04 (1,15,4) 1.315110E-03
(1,15,4): (1,14,4) 9.574640E-03 (1,15,3) -1.315110E-03 (1,15,5) 2.128280E-03
(1,15,5): (1,14,5) 2.132136E-02 (1,15,4) -2.128280E-03 (1,15,6) 8.121178E-04
(1,15,6): (1,14,6) 2.548812E-02 (1,15,5) -8.121178E-04 (1,15,7) -8.119724E-04
(1,15,7): (1,14,7) 2.132183E-02 (1,15,6) 8.119724E-04 (1,15,8) -2.127422E-03
(1,15,8): (1,14,8) 9.578040E-03 (1,15,7) 2.127422E-03 (1,15,9) -1.309921E-03
(1,15,9): (1,14,9) 2.950411E-03 (1,15,8) 1.309921E-03 (1,15,10) -4.552374E-04
(1,15,10): (1,14,10) 8.268732E-04 (1,15,9) 4.552374E-04

 WEL PACKAGE (WEL-1) FLOW RATES   PERIOD      2   STEP       15
 ----------------------------------------------------------------------------------------
   NUMBER   CELLID                    RATE       NAME                                    
 ----------------------------------------------------------------------------------------
     1      (1,8,6)              -270.00000      WEL                                     
 ----------------------------------------------------------------------------------------




 API PACKAGE (MAR) FLOW RATES   PERIOD      2   STEP       15
 -----------------------------------------------
   NUMBER   CELLID                    RATE      
 -----------------------------------------------
     1      (1,6,5)               46.666667     
     2      (1,6,6)               46.666667     
     3      (1,6,7)               46.666667     
     4      (1,10,5)              43.333333     
     5      (1,10,6)              43.333333     
     6      (1,10,7)              43.333333     
 -----------------------------------------------



1
  HEAD IN LAYER   1 AT END OF TIME STEP  15 IN STRESS PERIOD    2
  ---------------------------------------------------------------------------

            1           2           3           4           5           6           7           8           9          10
 ........................................................................................................................
   1   4.4649E-06  1.8054E-05  7.0363E-05  2.1288E-04  4.4375E-04  5.3227E-04  4.4377E-04  2.1299E-04  7.1033E-05  2.1723E-05
   2   2.1604E-05  9.3346E-05  3.8768E-04  1.2510E-03  2.7569E-03  3.3010E-03  2.7569E-03  1.2514E-03  3.9078E-04  1.1130E-04
   3   1.0264E-04  4.7413E-04  2.1051E-03  7.2967E-03  1.7204E-02  2.0479E-02  1.7204E-02  7.2987E-03  2.1192E-03  5.6033E-04
   4   3.9649E-04  1.9735E-03  9.4773E-03  3.5941E-02  9.3179E-02  0.1093      9.3180E-02  3.5948E-02  9.5292E-03  2.3100E-03
   5   1.1257E-03  6.0967E-03  3.2216E-02  0.1377      0.4148      0.4687      0.4148      0.1378      3.2356E-02  7.0621E-03
   6   1.8677E-03  1.1054E-02  6.5712E-02  0.3369       1.406       1.447       1.406      0.3369      6.5931E-02  1.2670E-02
   7   5.0411E-04  2.1649E-03  7.7082E-03  8.8890E-03 -0.1181      -1.076     -0.1181      8.8993E-03  7.7787E-03  2.5872E-03
   8  -5.3841E-04 -4.6102E-03 -3.6669E-02 -0.2492      -1.449      -7.723      -1.449     -0.2492     -3.6713E-02 -5.1010E-03
   9   4.2238E-04  1.7171E-03  5.3207E-03 -1.4277E-03 -0.1499      -1.115     -0.1499     -1.4186E-03  5.3812E-03  2.0691E-03
  10   1.7084E-03  1.0110E-02  6.0135E-02  0.3092       1.301       1.328       1.301      0.3092      6.0336E-02  1.1588E-02
  11   1.0356E-03  5.6075E-03  2.9627E-02  0.1267      0.3822      0.4299      0.3822      0.1267      2.9755E-02  6.4956E-03
  12   3.6550E-04  1.8187E-03  8.7306E-03  3.3096E-02  8.5759E-02  0.1003      8.5760E-02  3.3103E-02  8.7785E-03  2.1289E-03
  13   9.4715E-05  4.3739E-04  1.9412E-03  6.7252E-03  1.5843E-02  1.8825E-02  1.5843E-02  6.7271E-03  1.9542E-03  5.1694E-04
  14   1.9950E-05  8.6172E-05  3.5775E-04  1.1538E-03  2.5409E-03  3.0385E-03  2.5410E-03  1.1543E-03  3.6062E-04  1.0275E-04
  15   4.1248E-06  1.6675E-05  6.4969E-05  1.9648E-04  4.0930E-04  4.9050E-04  4.0931E-04  1.9658E-04  6.5588E-05  2.0065E-05

 HEAD WILL BE SAVED ON UNIT 1043 AT END OF TIME STEP   15, STRESS PERIOD    2


  VOLUME BUDGET FOR ENTIRE MODEL AT END OF TIME STEP   15, STRESS PERIOD   2
  ---------------------------------------------------------------------------------------------------

     CUMULATIVE VOLUME      L**3       RATES FOR THIS TIME STEP      L**3/T          PACKAGE NAME    
     ------------------                 ------------------------                     ----------------

           IN:                                      IN:
           ---                                      ---
              STO-SS =          10.7090                STO-SS =       4.4539E-02     STORAGE                          
              STO-SY =       28061.3867                STO-SY =         130.5243     STORAGE                          
                 WEL =           0.0000                   WEL =           0.0000     WEL-1                            
                 API =       40500.0000                   API =         270.0000     MAR                              
                 CHD =       2.8247E-08                   CHD =           0.0000     CHD_0                            

            TOTAL IN =       68572.0957              TOTAL IN =         400.5689

          OUT:                                     OUT:
          ----                                     ----
              STO-SS =          14.6690                STO-SS =       6.8645E-02     STORAGE                          
              STO-SY =       28057.4267                STO-SY =         130.5002     STORAGE                          
                 WEL =       40500.0000                   WEL =         270.0000     WEL-1                            
                 API =           0.0000                   API =           0.0000     MAR                              
                 CHD =       3.0388E-08                   CHD =           0.0000     CHD_0                            

           TOTAL OUT =       68572.0957             TOTAL OUT =         400.5689

            IN - OUT =      -4.8763E-08              IN - OUT =       3.7517E-12

 PERCENT DISCREPANCY =          -0.00     PERCENT DISCREPANCY =           0.00




         TIME SUMMARY AT END OF TIME STEP   15 IN STRESS PERIOD    2
                    SECONDS     MINUTES      HOURS       DAYS        YEARS
                    -----------------------------------------------------------
   TIME STEP LENGTH 8.64000E+05  14400.      240.00      10.000     2.73785E-02
 STRESS PERIOD TIME 1.29600E+07 2.16000E+05  3600.0      150.00     0.41068    
         TOTAL TIME 1.30464E+07 2.17440E+05  3624.0      151.00     0.41342    


end timestep


start timestep kper="2" kstp="16" mode="normal"

 UBDSV1 SAVING           STO-SS ON UNIT   1042 AT TIME STEP     16, STRESS PERIOD      2
 UBDSV1 SAVING           STO-SY ON UNIT   1042 AT TIME STEP     16, STRESS PERIOD      2
 UBDSV1 SAVING     FLOW-JA-FACE ON UNIT   1042 AT TIME STEP     16, STRESS PERIOD      2
 UBDSV06 SAVING       DATA-SPDIS IN MODEL GWF              PACKAGE NPF             CONNECTED TO MODEL GWF              PACKAGE NPF              ON UNIT   1042 AT TIME STEP     16, STRESS PERIOD      2
 UBDSV06 SAVING              WEL IN MODEL GWF              PACKAGE GWF             CONNECTED TO MODEL GWF              PACKAGE WEL-1            ON UNIT   1042 AT TIME STEP     16, STRESS PERIOD      2
 UBDSV06 SAVING              API IN MODEL GWF              PACKAGE GWF             CONNECTED TO MODEL GWF              PACKAGE MAR              ON UNIT   1042 AT TIME STEP     16, STRESS PERIOD      2
 UBDSV06 SAVING              CHD IN MODEL GWF              PACKAGE GWF             CONNECTED TO MODEL GWF              PACKAGE CHD_0            ON UNIT   1042 AT TIME STEP     16, STRESS PERIOD      2

    CALCULATED INTERCELL FLOW FOR PERIOD 2 STEP 16
(1,1,1): (1,1,2) 1.909454E-04 (1,2,1) 2.406748E-04
(1,1,2): (1,1,1) -1.909454E-04 (1,1,3) 7.100728E-04 (1,2,2) 1.014124E-03
(1,1,3): (1,1,2) -7.100728E-04 (1,1,4) 1.865587E-03 (1,2,3) 4.119168E-03
(1,1,4): (1,1,3) -1.865587E-03 (1,1,5) 2.927603E-03 (1,2,4) 1.302411E-02
(1,1,5): (1,1,4) -2.927603E-03 (1,1,6) 1.137402E-03 (1,2,5) 2.825733E-02
(1,1,6): (1,1,5) -1.137402E-03 (1,1,7) -1.137147E-03 (1,2,6) 3.378684E-02
(1,1,7): (1,1,6) 1.137147E-03 (1,1,8) -2.926147E-03 (1,2,7) 2.825811E-02
(1,1,8): (1,1,7) 2.926147E-03 (1,1,9) -1.857079E-03 (1,2,8) 1.302964E-02
(1,1,9): (1,1,8) 1.857079E-03 (1,1,10) -6.662970E-04 (1,2,9) 4.154342E-03
(1,1,10): (1,1,9) 6.662970E-04 (1,2,10) 1.213273E-03
(1,2,1): (1,1,1) -2.406748E-04 (1,2,2) 9.643940E-04 (1,3,1) 1.094222E-03
(1,2,2): (1,1,2) -1.014124E-03 (1,2,1) -9.643940E-04 (1,2,3) 3.815107E-03 (1,3,2) 4.923180E-03
(1,2,3): (1,1,3) -4.119168E-03 (1,2,2) -3.815107E-03 (1,2,4) 1.077033E-02 (1,3,3) 2.136467E-02
(1,2,4): (1,1,4) -1.302411E-02 (1,2,3) -1.077033E-02 (1,2,5) 1.815929E-02 (1,3,4) 7.257428E-02
(1,2,5): (1,1,5) -2.825733E-02 (1,2,4) -1.815929E-02 (1,2,6) 6.665410E-03 (1,3,5) 0.168604
(1,2,6): (1,1,6) -3.378684E-02 (1,2,5) -6.665410E-03 (1,2,7) -6.664377E-03 (1,3,6) 0.200409
(1,2,7): (1,1,7) -2.825811E-02 (1,2,6) 6.664377E-03 (1,2,8) -1.815309E-02 (1,3,7) 0.168607
(1,2,8): (1,1,8) -1.302964E-02 (1,2,7) 1.815309E-02 (1,2,9) -1.073217E-02 (1,3,8) 7.259731E-02
(1,2,9): (1,1,9) -4.154342E-03 (1,2,8) 1.073217E-02 (1,2,10) -3.607350E-03 (1,3,9) 2.151799E-02
(1,2,10): (1,1,10) -1.213273E-03 (1,2,9) 3.607350E-03 (1,3,10) 5.838237E-03
(1,3,1): (1,2,1) -1.094222E-03 (1,3,2) 4.793347E-03 (1,4,1) 3.799028E-03
(1,3,2): (1,2,2) -4.923180E-03 (1,3,1) -4.793347E-03 (1,3,3) 2.025642E-02 (1,4,2) 1.853201E-02
(1,3,3): (1,2,3) -2.136467E-02 (1,3,2) -2.025642E-02 (1,3,4) 6.197452E-02 (1,4,3) 8.758929E-02
(1,3,4): (1,2,4) -7.257428E-02 (1,3,3) -6.197452E-02 (1,3,5) 0.114137 (1,4,4) 0.328535
(1,3,5): (1,2,5) -0.168604 (1,3,4) -0.114137 (1,3,6) 3.842001E-02 (1,4,5) 0.849337
(1,3,6): (1,2,6) -0.200409 (1,3,5) -3.842001E-02 (1,3,7) -3.841584E-02 (1,4,6) 0.993823
(1,3,7): (1,2,7) -0.168607 (1,3,6) 3.841584E-02 (1,3,8) -0.114110 (1,4,7) 0.849347
(1,3,8): (1,2,8) -7.259731E-02 (1,3,7) 0.114110 (1,3,9) -6.180599E-02 (1,4,8) 0.328608
(1,3,9): (1,2,9) -2.151799E-02 (1,3,8) 6.180599E-02 (1,3,10) -1.928675E-02 (1,4,9) 8.809530E-02
(1,3,10): (1,2,10) -5.838237E-03 (1,3,9) 1.928675E-02 (1,4,10) 2.174746E-02
(1,4,1): (1,3,1) -3.799028E-03 (1,4,2) 1.952648E-02 (1,5,1) 8.985214E-03
(1,4,2): (1,3,2) -1.853201E-02 (1,4,1) -1.952648E-02 (1,4,3) 8.931489E-02 (1,5,2) 4.852673E-02
(1,4,3): (1,3,3) -8.758929E-02 (1,4,2) -8.931489E-02 (1,4,4) 0.302859 (1,5,3) 0.257469
(1,4,4): (1,3,4) -0.328535 (1,4,3) -0.302859 (1,4,5) 0.633843 (1,5,4) 1.12081
(1,4,5): (1,3,5) -0.849337 (1,4,4) -0.633843 (1,4,6) 0.181773 (1,5,5) 3.52353
(1,4,6): (1,3,6) -0.993823 (1,4,5) -0.181773 (1,4,7) -0.181760 (1,5,6) 3.95227
(1,4,7): (1,3,7) -0.849347 (1,4,6) 0.181760 (1,4,8) -0.633754 (1,5,7) 3.52356
(1,4,8): (1,3,8) -0.328608 (1,4,7) 0.633754 (1,4,9) -0.302255 (1,5,8) 1.12096
(1,4,9): (1,3,9) -8.809530E-02 (1,4,8) 0.302255 (1,4,10) -8.563296E-02 (1,5,9) 0.258595
(1,4,10): (1,3,10) -2.174746E-02 (1,4,9) 8.563296E-02 (1,5,10) 5.623476E-02
(1,5,1): (1,4,1) -8.985214E-03 (1,5,2) 5.907216E-02 (1,6,1) 8.488167E-03
(1,5,2): (1,4,2) -4.852673E-02 (1,5,1) -5.907216E-02 (1,5,3) 0.298342 (1,6,2) 5.429551E-02
(1,5,3): (1,4,3) -0.257469 (1,5,2) -0.298342 (1,5,4) 1.16658 (1,6,3) 0.355516
(1,5,4): (1,4,4) -1.12081 (1,5,3) -1.16658 (1,5,5) 3.02575 (1,6,4) 2.10524
(1,5,5): (1,4,5) -3.52353 (1,5,4) -3.02575 (1,5,6) 0.598047 (1,6,5) 11.3328
(1,5,6): (1,4,6) -3.95227 (1,5,5) -0.598047 (1,5,7) -0.598013 (1,6,6) 11.1538
(1,5,7): (1,4,7) -3.52356 (1,5,6) 0.598013 (1,5,8) -3.02552 (1,6,7) 11.3328
(1,5,8): (1,4,8) -1.12096 (1,5,7) 3.02552 (1,5,9) -1.16499 (1,6,8) 2.10536
(1,5,9): (1,4,9) -0.258595 (1,5,8) 1.16499 (1,5,10) -0.288052 (1,6,9) 0.356477
(1,5,10): (1,4,10) -5.623476E-02 (1,5,9) 0.288052 (1,6,10) 6.171134E-02
(1,6,1): (1,5,1) -8.488167E-03 (1,6,2) 0.104903 (1,7,1) -1.651438E-02
(1,6,2): (1,5,2) -5.429551E-02 (1,6,1) -0.104903 (1,6,3) 0.600288 (1,7,2) -0.102847
(1,6,3): (1,5,3) -0.355516 (1,6,2) -0.600288 (1,6,4) 2.92968 (1,7,3) -0.647282
(1,6,4): (1,5,4) -2.10524 (1,6,3) -2.92968 (1,6,5) 12.3214 (1,7,4) -3.61689
(1,6,5): (1,5,5) -11.3328 (1,6,4) -12.3214 (1,6,6) 0.436707 (1,7,5) -17.9647
(1,6,6): (1,5,6) -11.1538 (1,6,5) -0.436707 (1,6,7) -0.436654 (1,7,6) -29.8465
(1,6,7): (1,5,7) -11.3328 (1,6,6) 0.436654 (1,6,8) -12.3211 (1,7,7) -17.9647
(1,6,8): (1,5,8) -2.10536 (1,6,7) 12.3211 (1,6,9) -2.92720 (1,7,8) -3.61713
(1,6,9): (1,5,9) -0.356477 (1,6,8) 2.92720 (1,6,10) -0.583477 (1,7,9) -0.649180
(1,6,10): (1,5,10) -6.171134E-02 (1,6,9) 0.583477 (1,7,10) -0.117253
(1,7,1): (1,6,1) 1.651438E-02 (1,7,2) 1.856830E-02 (1,8,1) -1.270403E-02
(1,7,2): (1,6,2) 0.102847 (1,7,1) -1.856830E-02 (1,7,3) 5.610447E-02 (1,8,2) -7.887357E-02
(1,7,3): (1,6,3) 0.647282 (1,7,2) -5.610447E-02 (1,7,4) -2.101776E-02 (1,8,3) -0.496113
(1,7,4): (1,6,4) 3.61689 (1,7,3) 2.101776E-02 (1,7,5) -1.44403 (1,8,4) -2.77634
(1,7,5): (1,6,5) 17.9647 (1,7,4) 1.44403 (1,7,6) -9.78791 (1,8,5) -13.6677
(1,7,6): (1,6,6) 29.8465 (1,7,5) 9.78791 (1,7,7) 9.78793 (1,8,6) -60.3007
(1,7,7): (1,6,7) 17.9647 (1,7,6) -9.78793 (1,7,8) 1.44415 (1,8,7) -13.6677
(1,7,8): (1,6,8) 3.61713 (1,7,7) -1.44415 (1,7,9) 2.177925E-02 (1,8,8) -2.77652
(1,7,9): (1,6,9) 0.649180 (1,7,8) -2.177925E-02 (1,7,10) -5.189406E-02 (1,8,9) -0.497565
(1,7,10): (1,6,10) 0.117253 (1,7,9) 5.189406E-02 (1,8,10) -8.994061E-02
(1,8,1): (1,7,1) 1.270403E-02 (1,8,2) -4.758400E-02 (1,9,1) 1.167399E-02
(1,8,2): (1,7,2) 7.887357E-02 (1,8,1) 4.758400E-02 (1,8,3) -0.360604 (1,9,2) 7.348718E-02
(1,8,3): (1,7,3) 0.496113 (1,8,2) 0.360604 (1,8,4) -2.29042 (1,9,3) 0.468479
(1,8,4): (1,7,4) 2.77634 (1,8,3) 2.29042 (1,8,5) -12.1878 (1,9,4) 2.65920
(1,8,5): (1,7,5) 13.6677 (1,8,4) 12.1878 (1,8,6) -54.2913 (1,9,5) 13.2873
(1,8,6): (1,7,6) 60.3007 (1,8,5) 54.2913 (1,8,7) 54.2913 (1,9,6) 59.6601
(1,8,7): (1,7,7) 13.6677 (1,8,6) -54.2913 (1,8,8) 12.1878 (1,9,7) 13.2873
(1,8,8): (1,7,8) 2.77652 (1,8,7) -12.1878 (1,8,9) 2.28990 (1,9,8) 2.65936
(1,8,9): (1,7,9) 0.497565 (1,8,8) -2.28990 (1,8,10) 0.355180 (1,9,9) 0.469799
(1,8,10): (1,7,10) 8.994061E-02 (1,8,9) -0.355180 (1,9,10) 8.367343E-02
(1,9,1): (1,8,1) -1.167399E-02 (1,9,2) 1.421521E-02 (1,10,1) 1.558338E-02
(1,9,2): (1,8,2) -7.348718E-02 (1,9,1) -1.421521E-02 (1,9,3) 3.397539E-02 (1,10,2) 9.717231E-02
(1,9,3): (1,8,3) -0.468479 (1,9,2) -3.397539E-02 (1,9,4) -0.107610 (1,10,3) 0.611905
(1,9,4): (1,8,4) -2.65920 (1,9,3) 0.107610 (1,9,5) -1.66745 (1,10,4) 3.41912
(1,9,5): (1,8,5) -13.2873 (1,9,4) 1.66745 (1,9,6) -9.82373 (1,10,5) 16.9613
(1,9,6): (1,8,6) -59.6601 (1,9,5) 9.82373 (1,9,7) 9.82375 (1,10,6) 28.5984
(1,9,7): (1,8,7) -13.2873 (1,9,6) -9.82375 (1,9,8) 1.66756 (1,10,7) 16.9614
(1,9,8): (1,8,8) -2.65936 (1,9,7) -1.66756 (1,9,9) 0.108258 (1,10,8) 3.41935
(1,9,9): (1,8,9) -0.469799 (1,9,8) -0.108258 (1,9,10) -3.051410E-02 (1,10,9) 0.613691
(1,9,10): (1,8,10) -8.367343E-02 (1,9,9) 3.051410E-02 (1,10,10) 0.110768
(1,10,1): (1,9,1) -1.558338E-02 (1,10,2) 9.580303E-02 (1,11,1) -7.671283E-03
(1,10,2): (1,9,2) -9.717231E-02 (1,10,1) -9.580303E-02 (1,10,3) 0.548386 (1,11,2) -4.916895E-02
(1,10,3): (1,9,3) -0.611905 (1,10,2) -0.548386 (1,10,4) 2.68038 (1,11,3) -0.322866
(1,10,4): (1,9,4) -3.41912 (1,10,3) -2.68038 (1,10,5) 11.3217 (1,11,4) -1.92047
(1,10,5): (1,9,5) -16.9613 (1,10,4) -11.3217 (1,10,6) 0.259278 (1,11,5) -10.4039
(1,10,6): (1,9,6) -28.5984 (1,10,5) -0.259278 (1,10,7) -0.259231 (1,11,6) -10.1125
(1,10,7): (1,9,7) -16.9614 (1,10,6) 0.259231 (1,10,8) -11.3214 (1,11,7) -10.4039
(1,10,8): (1,9,8) -3.41935 (1,10,7) 11.3214 (1,10,9) -2.67812 (1,11,8) -1.92058
(1,10,9): (1,9,9) -0.613691 (1,10,8) 2.67812 (1,10,10) -0.533037 (1,11,9) -0.323733
(1,10,10): (1,9,10) -0.110768 (1,10,9) 0.533037 (1,11,10) -5.587171E-02
(1,11,1): (1,10,1) 7.671283E-03 (1,11,2) 5.428606E-02 (1,12,1) -8.249956E-03
(1,11,2): (1,10,2) 4.916895E-02 (1,11,1) -5.428606E-02 (1,11,3) 0.274080 (1,12,2) -4.454911E-02
(1,11,3): (1,10,3) 0.322866 (1,11,2) -0.274080 (1,11,4) 1.07145 (1,12,3) -0.236338
(1,11,4): (1,10,4) 1.92047 (1,11,3) -1.07145 (1,11,5) 2.77888 (1,12,4) -1.02884
(1,11,5): (1,10,5) 10.4039 (1,11,4) -2.77888 (1,11,6) 0.526790 (1,12,5) -3.23450
(1,11,6): (1,10,6) 10.1125 (1,11,5) -0.526790 (1,11,7) -0.526759 (1,12,6) -3.60748
(1,11,7): (1,10,7) 10.4039 (1,11,6) 0.526759 (1,11,8) -2.77867 (1,12,7) -3.23452
(1,11,8): (1,10,8) 1.92058 (1,11,7) 2.77867 (1,11,9) -1.06998 (1,12,8) -1.02898
(1,11,9): (1,10,9) 0.323733 (1,11,8) 1.06998 (1,11,10) -0.264624 (1,12,9) -0.237372
(1,11,10): (1,10,10) 5.587171E-02 (1,11,9) 0.264624 (1,12,10) -5.162570E-02
(1,12,1): (1,11,1) 8.249956E-03 (1,12,2) 1.798338E-02 (1,13,1) -3.498912E-03
(1,12,2): (1,11,2) 4.454911E-02 (1,12,1) -1.798338E-02 (1,12,3) 8.221933E-02 (1,13,2) -1.706249E-02
(1,12,3): (1,11,3) 0.236338 (1,12,2) -8.221933E-02 (1,12,4) 0.278614 (1,13,3) -8.061189E-02
(1,12,4): (1,11,4) 1.02884 (1,12,3) -0.278614 (1,12,5) 0.582390 (1,13,4) -0.302201
(1,12,5): (1,11,5) 3.23450 (1,12,4) -0.582390 (1,12,6) 0.163878 (1,13,5) -0.780544
(1,12,6): (1,11,6) 3.60748 (1,12,5) -0.163878 (1,12,7) -0.163865 (1,13,6) -0.910413
(1,12,7): (1,11,7) 3.23452 (1,12,6) 0.163865 (1,12,8) -0.582308 (1,13,7) -0.780553
(1,12,8): (1,11,8) 1.02898 (1,12,7) 0.582308 (1,12,9) -0.278058 (1,13,8) -0.302267
(1,12,9): (1,11,9) 0.237372 (1,12,8) 0.278058 (1,12,10) -7.882735E-02 (1,13,9) -8.107786E-02
(1,12,10): (1,11,10) 5.162570E-02 (1,12,9) 7.882735E-02 (1,13,10) -2.002367E-02
(1,13,1): (1,12,1) 3.498912E-03 (1,13,2) 4.419675E-03 (1,14,1) -1.009166E-03
(1,13,2): (1,12,2) 1.706249E-02 (1,13,1) -4.419675E-03 (1,13,3) 1.866891E-02 (1,14,2) -4.538961E-03
(1,13,3): (1,12,3) 8.061189E-02 (1,13,2) -1.866891E-02 (1,13,4) 5.707728E-02 (1,14,3) -1.968912E-02
(1,13,4): (1,12,4) 0.302201 (1,13,3) -5.707728E-02 (1,13,5) 0.104973 (1,14,4) -6.684334E-02
(1,13,5): (1,12,5) 0.780544 (1,13,4) -0.104973 (1,13,6) 3.494801E-02 (1,14,5) -0.155143
(1,13,6): (1,12,6) 0.910413 (1,13,5) -3.494801E-02 (1,13,7) -3.494417E-02 (1,14,6) -0.184041
(1,13,7): (1,12,7) 0.780553 (1,13,6) 3.494417E-02 (1,13,8) -0.104949 (1,14,7) -0.155146
(1,13,8): (1,12,8) 0.302267 (1,13,7) 0.104949 (1,13,9) -5.692181E-02 (1,14,8) -6.686457E-02
(1,13,9): (1,12,9) 8.107786E-02 (1,13,8) 5.692181E-02 (1,13,10) -1.777453E-02 (1,14,9) -1.983052E-02
(1,13,10): (1,12,10) 2.002367E-02 (1,13,9) 1.777453E-02 (1,14,10) -5.382831E-03
(1,14,1): (1,13,1) 1.009166E-03 (1,14,2) 8.898845E-04 (1,15,1) -2.221401E-04
(1,14,2): (1,13,2) 4.538961E-03 (1,14,1) -8.898845E-04 (1,14,3) 3.518905E-03 (1,15,2) -9.357302E-04
(1,14,3): (1,13,3) 1.968912E-02 (1,14,2) -3.518905E-03 (1,14,4) 9.927652E-03 (1,15,3) -3.799287E-03
(1,14,4): (1,13,4) 6.684334E-02 (1,14,3) -9.927652E-03 (1,14,5) 1.671759E-02 (1,15,4) -1.200627E-02
(1,14,5): (1,13,5) 0.155143 (1,14,4) -1.671759E-02 (1,14,6) 6.092625E-03 (1,15,5) -2.602761E-02
(1,14,6): (1,13,6) 0.184041 (1,14,5) -6.092625E-03 (1,14,7) -6.091670E-03 (1,15,6) -3.107849E-02
(1,14,7): (1,13,7) 0.155146 (1,14,6) 6.091670E-03 (1,14,8) -1.671186E-02 (1,15,7) -2.602833E-02
(1,14,8): (1,13,8) 6.686457E-02 (1,14,7) 1.671186E-02 (1,14,9) -9.892422E-03 (1,15,8) -1.201137E-02
(1,14,9): (1,13,9) 1.983052E-02 (1,14,8) 9.892422E-03 (1,14,10) -3.327137E-03 (1,15,9) -3.831756E-03
(1,14,10): (1,13,10) 5.382831E-03 (1,14,9) 3.327137E-03 (1,15,10) -1.119533E-03
(1,15,1): (1,14,1) 2.221401E-04 (1,15,2) 1.762947E-04
(1,15,2): (1,14,2) 9.357302E-04 (1,15,1) -1.762947E-04 (1,15,3) 6.553560E-04
(1,15,3): (1,14,3) 3.799287E-03 (1,15,2) -6.553560E-04 (1,15,4) 1.720837E-03
(1,15,4): (1,14,4) 1.200627E-02 (1,15,3) -1.720837E-03 (1,15,5) 2.697555E-03
(1,15,5): (1,14,5) 2.602761E-02 (1,15,4) -2.697555E-03 (1,15,6) 1.043010E-03
(1,15,6): (1,14,6) 3.107849E-02 (1,15,5) -1.043010E-03 (1,15,7) -1.042774E-03
(1,15,7): (1,14,7) 2.602833E-02 (1,15,6) 1.042774E-03 (1,15,8) -2.696208E-03
(1,15,8): (1,14,8) 1.201137E-02 (1,15,7) 2.696208E-03 (1,15,9) -1.712978E-03
(1,15,9): (1,14,9) 3.831756E-03 (1,15,8) 1.712978E-03 (1,15,10) -6.149273E-04
(1,15,10): (1,14,10) 1.119533E-03 (1,15,9) 6.149273E-04

 WEL PACKAGE (WEL-1) FLOW RATES   PERIOD      2   STEP       16
 ----------------------------------------------------------------------------------------
   NUMBER   CELLID                    RATE       NAME                                    
 ----------------------------------------------------------------------------------------
     1      (1,8,6)              -270.00000      WEL                                     
 ----------------------------------------------------------------------------------------




 API PACKAGE (MAR) FLOW RATES   PERIOD      2   STEP       16
 -----------------------------------------------
   NUMBER   CELLID                    RATE      
 -----------------------------------------------
     1      (1,6,5)               46.666667     
     2      (1,6,6)               46.666667     
     3      (1,6,7)               46.666667     
     4      (1,10,5)              43.333333     
     5      (1,10,6)              43.333333     
     6      (1,10,7)              43.333333     
 -----------------------------------------------



1
  HEAD IN LAYER   1 AT END OF TIME STEP  16 IN STRESS PERIOD    2
  ---------------------------------------------------------------------------

            1           2           3           4           5           6           7           8           9          10
 ........................................................................................................................
   1   6.6219E-06  2.5716E-05  9.6723E-05  2.8328E-04  5.7602E-04  6.8975E-04  5.7605E-04  2.8345E-04  9.7745E-05  3.1116E-05
   2   3.0689E-05  1.2713E-04  5.0862E-04  1.5855E-03  3.4008E-03  4.0671E-03  3.4009E-03  1.5862E-03  5.1316E-04  1.5244E-04
   3   1.4011E-04  6.1941E-04  2.6445E-03  8.8365E-03  2.0227E-02  2.4060E-02  2.0228E-02  8.8395E-03  2.6644E-03  7.3622E-04
   4   5.1999E-04  2.4722E-03  1.1393E-02  4.1554E-02  0.1043      0.1222      0.1043      4.1564E-02  1.1464E-02  2.9103E-03
   5   1.4184E-03  7.3213E-03  3.7045E-02  0.1520      0.4417      0.4987      0.4417      0.1520      3.7227E-02  8.5290E-03
   6   2.2670E-03  1.2744E-02  7.2342E-02  0.3553       1.433       1.471       1.433      0.3553      7.2618E-02  1.4691E-02
   7   6.1595E-04  2.4723E-03  8.0782E-03  5.9782E-03 -0.1383      -1.131     -0.1383      5.9920E-03  8.1682E-03  2.9830E-03
   8  -6.5438E-04 -5.4131E-03 -4.1493E-02 -0.2715      -1.524      -7.930      -1.524     -0.2715     -4.1548E-02 -6.0084E-03
   9   5.1296E-04  1.9342E-03  5.3299E-03 -5.4253E-03 -0.1723      -1.172     -0.1723     -5.4132E-03  5.4068E-03  2.3570E-03
  10   2.0710E-03  1.1640E-02  6.6118E-02  0.3257       1.325       1.348       1.325      0.3257      6.6371E-02  1.3419E-02
  11   1.3040E-03  6.7290E-03  3.4044E-02  0.1397      0.4067      0.4571      0.4067      0.1397      3.4211E-02  7.8393E-03
  12   4.7912E-04  2.2770E-03  1.0490E-02  3.8246E-02  9.5931E-02  0.1121      9.5932E-02  3.8255E-02  1.0555E-02  2.6808E-03
  13   1.2925E-04  5.7119E-04  2.4376E-03  8.1407E-03  1.8619E-02  2.2106E-02  1.8619E-02  8.1435E-03  2.4559E-03  6.7893E-04
  14   2.8330E-05  1.1732E-04  4.6919E-04  1.4618E-03  3.1330E-03  3.7421E-03  3.1331E-03  1.4625E-03  4.7338E-04  1.4068E-04
  15   6.1160E-06  2.3745E-05  8.9280E-05  2.6136E-04  5.3110E-04  6.3540E-04  5.3112E-04  2.6152E-04  9.0225E-05  2.8733E-05

 HEAD WILL BE SAVED ON UNIT 1043 AT END OF TIME STEP   16, STRESS PERIOD    2


  VOLUME BUDGET FOR ENTIRE MODEL AT END OF TIME STEP   16, STRESS PERIOD   2
  ---------------------------------------------------------------------------------------------------

     CUMULATIVE VOLUME      L**3       RATES FOR THIS TIME STEP      L**3/T          PACKAGE NAME    
     ------------------                 ------------------------                     ----------------

           IN:                                      IN:
           ---                                      ---
              STO-SS =          11.1345                STO-SS =       4.2556E-02     STORAGE                          
              STO-SY =       29311.8563                STO-SY =         125.0470     STORAGE                          
                 WEL =           0.0000                   WEL =           0.0000     WEL-1                            
                 API =       43200.0000                   API =         270.0000     MAR                              
                 CHD =       2.8247E-08                   CHD =           0.0000     CHD_0                            

            TOTAL IN =       72522.9908              TOTAL IN =         395.0895

          OUT:                                     OUT:
          ----                                     ----
              STO-SS =          15.3256                STO-SS =       6.5661E-02     STORAGE                          
              STO-SY =       29307.6652                STO-SY =         125.0239     STORAGE                          
                 WEL =       43200.0000                   WEL =         270.0000     WEL-1                            
                 API =           0.0000                   API =           0.0000     MAR                              
                 CHD =       3.0388E-08                   CHD =           0.0000     CHD_0                            

           TOTAL OUT =       72522.9908             TOTAL OUT =         395.0895

            IN - OUT =      -4.8443E-08              IN - OUT =       3.1264E-11

 PERCENT DISCREPANCY =          -0.00     PERCENT DISCREPANCY =           0.00




         TIME SUMMARY AT END OF TIME STEP   16 IN STRESS PERIOD    2
                    SECONDS     MINUTES      HOURS       DAYS        YEARS
                    -----------------------------------------------------------
   TIME STEP LENGTH 8.64000E+05  14400.      240.00      10.000     2.73785E-02
 STRESS PERIOD TIME 1.38240E+07 2.30400E+05  3840.0      160.00     0.43806    
         TOTAL TIME 1.39104E+07 2.31840E+05  3864.0      161.00     0.44079    


end timestep


start timestep kper="2" kstp="17" mode="normal"

 UBDSV1 SAVING           STO-SS ON UNIT   1042 AT TIME STEP     17, STRESS PERIOD      2
 UBDSV1 SAVING           STO-SY ON UNIT   1042 AT TIME STEP     17, STRESS PERIOD      2
 UBDSV1 SAVING     FLOW-JA-FACE ON UNIT   1042 AT TIME STEP     17, STRESS PERIOD      2
 UBDSV06 SAVING       DATA-SPDIS IN MODEL GWF              PACKAGE NPF             CONNECTED TO MODEL GWF              PACKAGE NPF              ON UNIT   1042 AT TIME STEP     17, STRESS PERIOD      2
 UBDSV06 SAVING              WEL IN MODEL GWF              PACKAGE GWF             CONNECTED TO MODEL GWF              PACKAGE WEL-1            ON UNIT   1042 AT TIME STEP     17, STRESS PERIOD      2
 UBDSV06 SAVING              API IN MODEL GWF              PACKAGE GWF             CONNECTED TO MODEL GWF              PACKAGE MAR              ON UNIT   1042 AT TIME STEP     17, STRESS PERIOD      2
 UBDSV06 SAVING              CHD IN MODEL GWF              PACKAGE GWF             CONNECTED TO MODEL GWF              PACKAGE CHD_0            ON UNIT   1042 AT TIME STEP     17, STRESS PERIOD      2

    CALCULATED INTERCELL FLOW FOR PERIOD 2 STEP 17
(1,1,1): (1,1,2) 2.622429E-04 (1,2,1) 3.302986E-04
(1,1,2): (1,1,1) -2.622429E-04 (1,1,3) 9.439129E-04 (1,2,2) 1.337528E-03
(1,1,3): (1,1,2) -9.439129E-04 (1,1,4) 2.396275E-03 (1,2,3) 5.245873E-03
(1,1,4): (1,1,3) -2.396275E-03 (1,1,5) 3.650363E-03 (1,2,4) 1.606251E-02
(1,1,5): (1,1,4) -3.650363E-03 (1,1,6) 1.434540E-03 (1,2,5) 3.399286E-02
(1,1,6): (1,1,5) -1.434540E-03 (1,1,7) -1.434136E-03 (1,2,6) 4.059051E-02
(1,1,7): (1,1,6) 1.434136E-03 (1,1,8) -3.648136E-03 (1,2,7) 3.399404E-02
(1,1,8): (1,1,7) 3.648136E-03 (1,1,9) -2.383717E-03 (1,2,8) 1.607059E-02
(1,1,9): (1,1,8) 2.383717E-03 (1,1,10) -8.815580E-04 (1,2,9) 5.295527E-03
(1,1,10): (1,1,9) 8.815580E-04 (1,2,10) 1.608853E-03
(1,2,1): (1,1,1) -3.302986E-04 (1,2,2) 1.269471E-03 (1,3,1) 1.446730E-03
(1,2,2): (1,1,2) -1.337528E-03 (1,2,1) -1.269471E-03 (1,2,3) 4.852243E-03 (1,3,2) 6.245080E-03
(1,2,3): (1,1,3) -5.245873E-03 (1,2,2) -4.852243E-03 (1,2,4) 1.321261E-02 (1,3,3) 2.612645E-02
(1,2,4): (1,1,4) -1.606251E-02 (1,2,3) -1.321261E-02 (1,2,5) 2.157849E-02 (1,3,4) 8.578955E-02
(1,2,5): (1,1,5) -3.399286E-02 (1,2,4) -2.157849E-02 (1,2,6) 8.030044E-03 (1,3,5) 0.193998
(1,2,6): (1,1,6) -4.059051E-02 (1,2,5) -8.030044E-03 (1,2,7) -8.028462E-03 (1,3,6) 0.230387
(1,2,7): (1,1,7) -3.399404E-02 (1,2,6) 8.028462E-03 (1,2,8) -2.156936E-02 (1,3,7) 0.194002
(1,2,8): (1,1,8) -1.607059E-02 (1,2,7) 2.156936E-02 (1,2,9) -1.315847E-02 (1,3,8) 8.582211E-02
(1,2,9): (1,1,9) -5.295527E-03 (1,2,8) 1.315847E-02 (1,2,10) -4.568205E-03 (1,3,9) 2.633533E-02
(1,2,10): (1,1,10) -1.608853E-03 (1,2,9) 4.568205E-03 (1,3,10) 7.446318E-03
(1,3,1): (1,2,1) -1.446730E-03 (1,3,2) 6.067813E-03 (1,4,1) 4.818275E-03
(1,3,2): (1,2,2) -6.245080E-03 (1,3,1) -6.067813E-03 (1,3,3) 2.473334E-02 (1,4,2) 2.251731E-02
(1,3,3): (1,2,3) -2.612645E-02 (1,3,2) -2.473334E-02 (1,3,4) 7.286801E-02 (1,4,3) 0.102458
(1,3,4): (1,2,4) -8.578955E-02 (1,3,3) -7.286801E-02 (1,3,5) 0.129717 (1,4,4) 0.370945
(1,3,5): (1,2,5) -0.193998 (1,3,4) -0.129717 (1,3,6) 4.435191E-02 (1,4,5) 0.931672
(1,3,6): (1,2,6) -0.230387 (1,3,5) -4.435191E-02 (1,3,7) -4.434574E-02 (1,4,6) 1.08947
(1,3,7): (1,2,7) -0.194002 (1,3,6) 4.434574E-02 (1,3,8) -0.129680 (1,4,7) 0.931686
(1,3,8): (1,2,8) -8.582211E-02 (1,3,7) 0.129680 (1,3,9) -7.263742E-02 (1,4,8) 0.371043
(1,3,9): (1,2,9) -2.633533E-02 (1,3,8) 7.263742E-02 (1,3,10) -2.345667E-02 (1,4,9) 0.103121
(1,3,10): (1,2,10) -7.446318E-03 (1,3,9) 2.345667E-02 (1,4,10) 2.656751E-02
(1,4,1): (1,3,1) -4.818275E-03 (1,4,2) 2.376706E-02 (1,5,1) 1.088323E-02
(1,4,2): (1,3,2) -2.251731E-02 (1,4,1) -2.376706E-02 (1,4,3) 0.104676 (1,5,2) 5.624627E-02
(1,4,3): (1,3,3) -0.102458 (1,4,2) -0.104676 (1,4,4) 0.341276 (1,5,3) 0.287087
(1,4,4): (1,3,4) -0.370945 (1,4,3) -0.341276 (1,4,5) 0.689122 (1,5,4) 1.20586
(1,4,5): (1,3,5) -0.931672 (1,4,4) -0.689122 (1,4,6) 0.200797 (1,5,5) 3.68222
(1,4,6): (1,3,6) -1.08947 (1,4,5) -0.200797 (1,4,7) -0.200777 (1,5,6) 4.12418
(1,4,7): (1,3,7) -0.931686 (1,4,6) 0.200777 (1,4,8) -0.688999 (1,5,7) 3.68225
(1,4,8): (1,3,8) -0.371043 (1,4,7) 0.688999 (1,4,9) -0.340479 (1,5,8) 1.20606
(1,4,9): (1,3,9) -0.103121 (1,4,8) 0.340479 (1,4,10) -0.100008 (1,5,9) 0.288498
(1,4,10): (1,3,10) -2.656751E-02 (1,4,9) 0.100008 (1,5,10) 6.552188E-02
(1,5,1): (1,4,1) -1.088323E-02 (1,5,2) 6.913594E-02 (1,6,1) 9.546001E-03
(1,5,2): (1,4,2) -5.624627E-02 (1,5,1) -6.913594E-02 (1,5,3) 0.335628 (1,6,2) 5.859628E-02
(1,5,3): (1,4,3) -0.287087 (1,5,2) -0.335628 (1,5,4) 1.26054 (1,6,3) 0.371018
(1,5,4): (1,4,4) -1.20586 (1,5,3) -1.26054 (1,5,5) 3.15371 (1,6,4) 2.13892
(1,5,5): (1,4,5) -3.68222 (1,5,4) -3.15371 (1,5,6) 0.629478 (1,6,5) 11.3370
(1,5,6): (1,4,6) -4.12418 (1,5,5) -0.629478 (1,5,7) -0.629431 (1,6,6) 11.0802
(1,5,7): (1,4,7) -3.68225 (1,5,6) 0.629431 (1,5,8) -3.15341 (1,6,7) 11.3370
(1,5,8): (1,4,8) -1.20606 (1,5,7) 3.15341 (1,5,9) -1.25851 (1,6,8) 2.13907
(1,5,9): (1,4,9) -0.288498 (1,5,8) 1.25851 (1,5,10) -0.323061 (1,6,9) 0.372136
(1,5,10): (1,4,10) -6.552188E-02 (1,5,9) 0.323061 (1,6,10) 6.688839E-02
(1,6,1): (1,5,1) -9.546001E-03 (1,6,2) 0.118215 (1,7,1) -1.971665E-02
(1,6,2): (1,5,2) -5.859628E-02 (1,6,1) -0.118215 (1,6,3) 0.648903 (1,7,2) -0.117507
(1,6,3): (1,5,3) -0.371018 (1,6,2) -0.648903 (1,6,4) 3.04320 (1,7,3) -0.711273
(1,6,4): (1,5,4) -2.13892 (1,6,3) -3.04320 (1,6,5) 12.4262 (1,7,4) -3.83490
(1,6,5): (1,5,5) -11.3370 (1,6,4) -12.4262 (1,6,6) 0.396299 (1,7,5) -18.5105
(1,6,6): (1,5,6) -11.0802 (1,6,5) -0.396299 (1,6,7) -0.396229 (1,7,6) -30.7217
(1,6,7): (1,5,7) -11.3370 (1,6,6) 0.396229 (1,6,8) -12.4258 (1,7,7) -18.5105
(1,6,8): (1,5,8) -2.13907 (1,6,7) 12.4258 (1,6,9) -3.04015 (1,7,8) -3.83521
(1,6,9): (1,5,9) -0.372136 (1,6,8) 3.04015 (1,6,10) -0.629080 (1,7,9) -0.713619
(1,6,10): (1,5,10) -6.688839E-02 (1,6,9) 0.629080 (1,7,10) -0.134608
(1,7,1): (1,6,1) 1.971665E-02 (1,7,2) 2.042394E-02 (1,8,1) -1.523336E-02
(1,7,2): (1,6,2) 0.117507 (1,7,1) -2.042394E-02 (1,7,3) 5.550121E-02 (1,8,2) -9.056803E-02
(1,7,3): (1,6,3) 0.711273 (1,7,2) -5.550121E-02 (1,7,4) -5.761971E-02 (1,8,3) -0.548225
(1,7,4): (1,6,4) 3.83490 (1,7,3) 5.761971E-02 (1,7,5) -1.61371 (1,8,4) -2.96067
(1,7,5): (1,6,5) 18.5105 (1,7,4) 1.61371 (1,7,6) -10.0706 (1,8,5) -14.1397
(1,7,6): (1,6,6) 30.7217 (1,7,5) 10.0706 (1,7,7) 10.0707 (1,8,6) -61.1092
(1,7,7): (1,6,7) 18.5105 (1,7,6) -10.0707 (1,7,8) 1.61387 (1,8,7) -14.1397
(1,7,8): (1,6,8) 3.83521 (1,7,7) -1.61387 (1,7,9) 5.856574E-02 (1,8,8) -2.96090
(1,7,9): (1,6,9) 0.713619 (1,7,8) -5.856574E-02 (1,7,10) -5.054912E-02 (1,8,9) -0.550027
(1,7,10): (1,6,10) 0.134608 (1,7,9) 5.054912E-02 (1,8,10) -0.103762
(1,8,1): (1,7,1) 1.523336E-02 (1,8,2) -5.488806E-02 (1,9,1) 1.395703E-02
(1,8,2): (1,7,2) 9.056803E-02 (1,8,1) 5.488806E-02 (1,8,3) -0.401519 (1,9,2) 8.418738E-02
(1,8,3): (1,7,3) 0.548225 (1,8,2) 0.401519 (1,8,4) -2.45824 (1,9,3) 0.516766
(1,8,4): (1,7,4) 2.96067 (1,8,3) 2.45824 (1,8,5) -12.6391 (1,9,4) 2.83203
(1,8,5): (1,7,5) 14.1397 (1,8,4) 12.6391 (1,8,6) -54.7688 (1,9,5) 13.7326
(1,8,6): (1,7,6) 61.1092 (1,8,5) 54.7688 (1,8,7) 54.7688 (1,9,6) 60.4215
(1,8,7): (1,7,7) 14.1397 (1,8,6) -54.7688 (1,8,8) 12.6391 (1,9,7) 13.7326
(1,8,8): (1,7,8) 2.96090 (1,8,7) -12.6391 (1,8,9) 2.45760 (1,9,8) 2.83224
(1,8,9): (1,7,9) 0.550027 (1,8,8) -2.45760 (1,8,10) 0.395054 (1,9,9) 0.518398
(1,8,10): (1,7,10) 0.103762 (1,8,9) -0.395054 (1,9,10) 9.629680E-02
(1,9,1): (1,8,1) -1.395703E-02 (1,9,2) 1.532407E-02 (1,10,1) 1.861391E-02
(1,9,2): (1,8,2) -8.418738E-02 (1,9,1) -1.532407E-02 (1,9,3) 3.057253E-02 (1,10,2) 0.111097
(1,9,3): (1,8,3) -0.516766 (1,9,2) -3.057253E-02 (1,9,4) -0.151437 (1,10,3) 0.672887
(1,9,4): (1,8,4) -2.83203 (1,9,3) 0.151437 (1,9,5) -1.84856 (1,10,4) 3.62669
(1,9,5): (1,8,5) -13.7326 (1,9,4) 1.84856 (1,9,6) -10.1079 (1,10,5) 17.4469
(1,9,6): (1,8,6) -60.4215 (1,9,5) 10.1079 (1,9,7) 10.1079 (1,10,6) 29.3997
(1,9,7): (1,8,7) -13.7326 (1,9,6) -10.1079 (1,9,8) 1.84869 (1,10,7) 17.4470
(1,9,8): (1,8,8) -2.83224 (1,9,7) -1.84869 (1,9,9) 0.152240 (1,10,8) 3.62699
(1,9,9): (1,8,9) -0.518398 (1,9,8) -0.152240 (1,9,10) -2.653564E-02 (1,10,9) 0.675096
(1,9,10): (1,8,10) -9.629680E-02 (1,9,9) 2.653564E-02 (1,10,10) 0.127244
(1,10,1): (1,9,1) -1.861391E-02 (1,10,2) 0.107805 (1,11,1) -8.596139E-03
(1,10,2): (1,9,2) -0.111097 (1,10,1) -0.107805 (1,10,3) 0.591914 (1,11,2) -5.289041E-02
(1,10,3): (1,9,3) -0.672887 (1,10,2) -0.591914 (1,10,4) 2.77933 (1,11,3) -0.335998
(1,10,4): (1,9,4) -3.62669 (1,10,3) -2.77933 (1,10,5) 11.3697 (1,11,4) -1.94609
(1,10,5): (1,9,5) -17.4469 (1,10,4) -11.3697 (1,10,6) 0.211524 (1,11,5) -10.3584
(1,10,6): (1,9,6) -29.3997 (1,10,5) -0.211524 (1,10,7) -0.211461 (1,11,6) -9.98735
(1,10,7): (1,9,7) -17.4470 (1,10,6) 0.211461 (1,10,8) -11.3693 (1,11,7) -10.3584
(1,10,8): (1,9,8) -3.62699 (1,10,7) 11.3693 (1,10,9) -2.77655 (1,11,8) -1.94622
(1,10,9): (1,9,9) -0.675096 (1,10,8) 2.77655 (1,10,10) -0.573841 (1,11,9) -0.337003
(1,10,10): (1,9,10) -0.127244 (1,10,9) 0.573841 (1,11,10) -6.035826E-02
(1,11,1): (1,10,1) 8.596139E-03 (1,11,2) 6.348602E-02 (1,12,1) -9.983305E-03
(1,11,2): (1,10,2) 5.289041E-02 (1,11,1) -6.348602E-02 (1,11,3) 0.308094 (1,12,2) -5.158735E-02
(1,11,3): (1,10,3) 0.335998 (1,11,2) -0.308094 (1,11,4) 1.15677 (1,12,3) -0.263281
(1,11,4): (1,10,4) 1.94609 (1,11,3) -1.15677 (1,11,5) 2.89279 (1,12,4) -1.10587
(1,11,5): (1,10,5) 10.3584 (1,11,4) -2.89279 (1,11,6) 0.553184 (1,12,5) -3.37590
(1,11,6): (1,10,6) 9.98735 (1,11,5) -0.553184 (1,11,7) -0.553141 (1,12,6) -3.75891
(1,11,7): (1,10,7) 10.3584 (1,11,6) 0.553141 (1,11,8) -2.89252 (1,12,7) -3.37592
(1,11,8): (1,10,8) 1.94622 (1,11,7) 2.89252 (1,11,9) -1.15491 (1,12,8) -1.10605
(1,11,9): (1,10,9) 0.337003 (1,11,8) 1.15491 (1,11,10) -0.296552 (1,12,9) -0.264575
(1,11,10): (1,10,10) 6.035826E-02 (1,11,9) 0.296552 (1,12,10) -6.009499E-02
(1,12,1): (1,11,1) 9.983305E-03 (1,12,2) 2.187703E-02 (1,13,1) -4.435119E-03
(1,12,2): (1,11,2) 5.158735E-02 (1,12,1) -2.187703E-02 (1,12,3) 9.630584E-02 (1,13,2) -2.071958E-02
(1,12,3): (1,11,3) 0.263281 (1,12,2) -9.630584E-02 (1,12,4) 0.313765 (1,13,3) -9.423933E-02
(1,12,4): (1,11,4) 1.10587 (1,12,3) -0.313765 (1,12,5) 0.632714 (1,13,4) -0.340995
(1,12,5): (1,11,5) 3.37590 (1,12,4) -0.632714 (1,12,6) 0.180847 (1,13,5) -0.855595
(1,12,6): (1,11,6) 3.75891 (1,12,5) -0.180847 (1,12,7) -0.180829 (1,13,6) -0.997242
(1,12,7): (1,11,7) 3.37592 (1,12,6) 0.180829 (1,12,8) -0.632602 (1,13,7) -0.855607
(1,12,8): (1,11,8) 1.10605 (1,12,7) 0.632602 (1,12,9) -0.313032 (1,13,8) -0.341085
(1,12,9): (1,11,9) 0.264575 (1,12,8) 0.313032 (1,12,10) -9.200732E-02 (1,13,9) -9.484913E-02
(1,12,10): (1,11,10) 6.009499E-02 (1,12,9) 9.200732E-02 (1,13,10) -2.444733E-02
(1,13,1): (1,12,1) 4.435119E-03 (1,13,2) 5.592387E-03 (1,14,1) -1.333707E-03
(1,13,2): (1,12,2) 2.071958E-02 (1,13,1) -5.592387E-03 (1,13,3) 2.278458E-02 (1,14,2) -5.755131E-03
(1,13,3): (1,12,3) 9.423933E-02 (1,13,2) -2.278458E-02 (1,13,4) 6.707645E-02 (1,14,3) -2.406615E-02
(1,13,4): (1,12,4) 0.340995 (1,13,3) -6.707645E-02 (1,13,5) 0.119233 (1,14,4) -7.897548E-02
(1,13,5): (1,12,5) 0.855595 (1,13,4) -0.119233 (1,13,6) 4.031631E-02 (1,14,5) -0.178411
(1,13,6): (1,12,6) 0.997242 (1,13,5) -4.031631E-02 (1,13,7) -4.031063E-02 (1,14,6) -0.211448
(1,13,7): (1,12,7) 0.855607 (1,13,6) 4.031063E-02 (1,13,8) -0.119198 (1,14,7) -0.178416
(1,13,8): (1,12,8) 0.341085 (1,13,7) 0.119198 (1,13,9) -6.686380E-02 (1,14,8) -7.900548E-02
(1,13,9): (1,12,9) 9.484913E-02 (1,13,8) 6.686380E-02 (1,13,10) -2.160752E-02 (1,14,9) -2.425872E-02
(1,13,10): (1,12,10) 2.444733E-02 (1,13,9) 2.160752E-02 (1,14,10) -6.862438E-03
(1,14,1): (1,13,1) 1.333707E-03 (1,14,2) 1.170969E-03 (1,15,1) -3.047552E-04
(1,14,2): (1,13,2) 5.755131E-03 (1,14,1) -1.170969E-03 (1,14,3) 4.473788E-03 (1,15,2) -1.233677E-03
(1,14,3): (1,13,3) 2.406615E-02 (1,14,2) -4.473788E-03 (1,14,4) 1.217363E-02 (1,15,3) -4.836590E-03
(1,14,4): (1,13,4) 7.897548E-02 (1,14,3) -1.217363E-02 (1,14,5) 1.985533E-02 (1,15,4) -1.480095E-02
(1,14,5): (1,13,5) 0.178411 (1,14,4) -1.985533E-02 (1,14,6) 7.336136E-03 (1,15,5) -3.129608E-02
(1,14,6): (1,13,6) 0.211448 (1,14,5) -7.336136E-03 (1,14,7) -7.334675E-03 (1,15,6) -3.731908E-02
(1,14,7): (1,13,7) 0.178416 (1,14,6) 7.334675E-03 (1,14,8) -1.984690E-02 (1,15,7) -3.129717E-02
(1,14,8): (1,13,8) 7.900548E-02 (1,14,7) 1.984690E-02 (1,14,9) -1.212367E-02 (1,15,8) -1.480840E-02
(1,14,9): (1,13,9) 2.425872E-02 (1,14,8) 1.212367E-02 (1,14,10) -4.211700E-03 (1,15,9) -4.882409E-03
(1,14,10): (1,13,10) 6.862438E-03 (1,14,9) 4.211700E-03 (1,15,10) -1.484003E-03
(1,15,1): (1,14,1) 3.047552E-04 (1,15,2) 2.420479E-04
(1,15,2): (1,14,2) 1.233677E-03 (1,15,1) -2.420479E-04 (1,15,3) 8.708886E-04
(1,15,3): (1,14,3) 4.836590E-03 (1,15,2) -8.708886E-04 (1,15,4) 2.209535E-03
(1,15,4): (1,14,4) 1.480095E-02 (1,15,3) -2.209535E-03 (1,15,5) 3.362079E-03
(1,15,5): (1,14,5) 3.129608E-02 (1,15,4) -3.362079E-03 (1,15,6) 1.314945E-03
(1,15,6): (1,14,6) 3.731908E-02 (1,15,5) -1.314945E-03 (1,15,7) -1.314570E-03
(1,15,7): (1,14,7) 3.129717E-02 (1,15,6) 1.314570E-03 (1,15,8) -3.360021E-03
(1,15,8): (1,14,8) 1.480840E-02 (1,15,7) 3.360021E-03 (1,15,9) -2.197938E-03
(1,15,9): (1,14,9) 4.882409E-03 (1,15,8) 2.197938E-03 (1,15,10) -8.133177E-04
(1,15,10): (1,14,10) 1.484003E-03 (1,15,9) 8.133177E-04

 WEL PACKAGE (WEL-1) FLOW RATES   PERIOD      2   STEP       17
 ----------------------------------------------------------------------------------------
   NUMBER   CELLID                    RATE       NAME                                    
 ----------------------------------------------------------------------------------------
     1      (1,8,6)              -267.54731      WEL                                     
 ----------------------------------------------------------------------------------------




 API PACKAGE (MAR) FLOW RATES   PERIOD      2   STEP       17
 -----------------------------------------------
   NUMBER   CELLID                    RATE      
 -----------------------------------------------
     1      (1,6,5)               46.666667     
     2      (1,6,6)               46.666667     
     3      (1,6,7)               46.666667     
     4      (1,10,5)              42.515770     
     5      (1,10,6)              42.515770     
     6      (1,10,7)              42.515770     
 -----------------------------------------------



1
  HEAD IN LAYER   1 AT END OF TIME STEP  17 IN STRESS PERIOD    2
  ---------------------------------------------------------------------------

            1           2           3           4           5           6           7           8           9          10
 ........................................................................................................................
   1   9.5831E-06  3.5807E-05  1.3020E-04  3.6982E-04  7.3483E-04  8.7827E-04  7.3487E-04  3.7008E-04  1.3172E-04  4.3562E-05
   2   4.2613E-05  1.6956E-04  6.5475E-04  1.9757E-03  4.1327E-03  4.9353E-03  4.1329E-03  1.9768E-03  6.6123E-04  2.0444E-04
   3   1.8728E-04  7.9402E-04  3.2665E-03  1.0546E-02  2.3487E-02  2.7910E-02  2.3488E-02  1.0550E-02  3.2939E-03  9.4900E-04
   4   6.6908E-04  3.0451E-03  1.3499E-02  4.7465E-02  0.1156      0.1354      0.1156      4.7479E-02  1.3592E-02  3.6048E-03
   5   1.7572E-03  8.6648E-03  4.2087E-02  0.1661      0.4674      0.5272      0.4674      0.1661      4.2320E-02  1.0150E-02
   6   2.7116E-03  1.4516E-02  7.8898E-02  0.3723       1.457       1.491       1.457      0.3723      7.9241E-02  1.6828E-02
   7   7.4042E-04  2.7822E-03  8.3277E-03  2.5706E-03 -0.1588      -1.182     -0.1588      2.5888E-03  8.4404E-03  3.3898E-03
   8  -7.8280E-04 -6.2720E-03 -4.6449E-02 -0.2934      -1.596      -8.112      -1.596     -0.2934     -4.6516E-02 -6.9829E-03
   9   6.1282E-04  2.1449E-03  5.2006E-03 -9.9353E-03 -0.1950      -1.226     -0.1950     -9.9195E-03  5.2964E-03  2.6443E-03
  10   2.4737E-03  1.3240E-02  7.2008E-02  0.3408       1.343       1.362       1.343      0.3408      7.2321E-02  1.5349E-02
  11   1.6143E-03  7.9579E-03  3.8649E-02  0.1526      0.4299      0.4827      0.4299      0.1526      3.8863E-02  9.3226E-03
  12   6.1618E-04  2.8033E-03  1.2422E-02  4.3662E-02  0.1063      0.1241      0.1063      4.3675E-02  1.2508E-02  3.3187E-03
  13   1.7269E-04  7.3189E-04  3.0097E-03  9.7108E-03  2.1608E-02  2.5630E-02  2.1609E-02  9.7148E-03  3.0349E-03  8.7479E-04
  14   3.9324E-05  1.5642E-04  6.0377E-04  1.8209E-03  3.8057E-03  4.5390E-03  3.8058E-03  1.8219E-03  6.0976E-04  1.8861E-04
  15   8.8487E-06  3.3053E-05  1.2014E-04  3.4109E-04  6.7727E-04  8.0876E-04  6.7731E-04  3.4133E-04  1.2154E-04  4.0213E-05

 HEAD WILL BE SAVED ON UNIT 1043 AT END OF TIME STEP   17, STRESS PERIOD    2


  VOLUME BUDGET FOR ENTIRE MODEL AT END OF TIME STEP   17, STRESS PERIOD   2
  ---------------------------------------------------------------------------------------------------

     CUMULATIVE VOLUME      L**3       RATES FOR THIS TIME STEP      L**3/T          PACKAGE NAME    
     ------------------                 ------------------------                     ----------------

           IN:                                      IN:
           ---                                      ---
              STO-SS =          11.5391                STO-SS =       4.0455E-02     STORAGE                          
              STO-SY =       30488.2310                STO-SY =         117.6375     STORAGE                          
                 WEL =           0.0000                   WEL =           0.0000     WEL-1                            
                 API =       45875.4731                   API =         267.5473     MAR                              
                 CHD =       2.8247E-08                   CHD =           0.0000     CHD_0                            

            TOTAL IN =       76375.2432              TOTAL IN =         385.2252

          OUT:                                     OUT:
          ----                                     ----
              STO-SS =          15.9414                STO-SS =       6.1579E-02     STORAGE                          
              STO-SY =       30483.8288                STO-SY =         117.6164     STORAGE                          
                 WEL =       45875.4731                   WEL =         267.5473     WEL-1                            
                 API =           0.0000                   API =           0.0000     MAR                              
                 CHD =       3.0388E-08                   CHD =           0.0000     CHD_0                            

           TOTAL OUT =       76375.2432             TOTAL OUT =         385.2252

            IN - OUT =      -7.8144E-09              IN - OUT =       4.0638E-09

 PERCENT DISCREPANCY =          -0.00     PERCENT DISCREPANCY =           0.00




         TIME SUMMARY AT END OF TIME STEP   17 IN STRESS PERIOD    2
                    SECONDS     MINUTES      HOURS       DAYS        YEARS
                    -----------------------------------------------------------
   TIME STEP LENGTH 8.64000E+05  14400.      240.00      10.000     2.73785E-02
 STRESS PERIOD TIME 1.46880E+07 2.44800E+05  4080.0      170.00     0.46543    
         TOTAL TIME 1.47744E+07 2.46240E+05  4104.0      171.00     0.46817    


end timestep


start timestep kper="2" kstp="18" mode="normal"

 UBDSV1 SAVING           STO-SS ON UNIT   1042 AT TIME STEP     18, STRESS PERIOD      2
 UBDSV1 SAVING           STO-SY ON UNIT   1042 AT TIME STEP     18, STRESS PERIOD      2
 UBDSV1 SAVING     FLOW-JA-FACE ON UNIT   1042 AT TIME STEP     18, STRESS PERIOD      2
 UBDSV06 SAVING       DATA-SPDIS IN MODEL GWF              PACKAGE NPF             CONNECTED TO MODEL GWF              PACKAGE NPF              ON UNIT   1042 AT TIME STEP     18, STRESS PERIOD      2
 UBDSV06 SAVING              WEL IN MODEL GWF              PACKAGE GWF             CONNECTED TO MODEL GWF              PACKAGE WEL-1            ON UNIT   1042 AT TIME STEP     18, STRESS PERIOD      2
 UBDSV06 SAVING              API IN MODEL GWF              PACKAGE GWF             CONNECTED TO MODEL GWF              PACKAGE MAR              ON UNIT   1042 AT TIME STEP     18, STRESS PERIOD      2
 UBDSV06 SAVING              CHD IN MODEL GWF              PACKAGE GWF             CONNECTED TO MODEL GWF              PACKAGE CHD_0            ON UNIT   1042 AT TIME STEP     18, STRESS PERIOD      2

    CALCULATED INTERCELL FLOW FOR PERIOD 2 STEP 18
(1,1,1): (1,1,2) 3.528390E-04 (1,2,1) 4.440412E-04
(1,1,2): (1,1,1) -3.528390E-04 (1,1,3) 1.231413E-03 (1,2,2) 1.731119E-03
(1,1,3): (1,1,2) -1.231413E-03 (1,1,4) 3.026296E-03 (1,2,3) 6.567523E-03
(1,1,4): (1,1,3) -3.026296E-03 (1,1,5) 4.483736E-03 (1,2,4) 1.951060E-02
(1,1,5): (1,1,4) -4.483736E-03 (1,1,6) 1.779622E-03 (1,2,5) 4.034504E-02
(1,1,6): (1,1,5) -1.779622E-03 (1,1,7) -1.778996E-03 (1,2,6) 4.810323E-02
(1,1,7): (1,1,6) 1.778996E-03 (1,1,8) -4.480415E-03 (1,2,7) 4.034678E-02
(1,1,8): (1,1,7) 4.480415E-03 (1,1,9) -3.008190E-03 (1,2,8) 1.952214E-02
(1,1,9): (1,1,8) 3.008190E-03 (1,1,10) -1.144533E-03 (1,2,9) 6.636084E-03
(1,1,10): (1,1,9) 1.144533E-03 (1,2,10) 2.093241E-03
(1,2,1): (1,1,1) -4.440412E-04 (1,2,2) 1.639916E-03 (1,3,1) 1.876973E-03
(1,2,2): (1,1,2) -1.731119E-03 (1,2,1) -1.639916E-03 (1,2,3) 6.067793E-03 (1,3,2) 7.788386E-03
(1,2,3): (1,1,3) -6.567523E-03 (1,2,2) -6.067793E-03 (1,2,4) 1.596891E-02 (1,3,3) 3.147103E-02
(1,2,4): (1,1,4) -1.951060E-02 (1,2,3) -1.596891E-02 (1,2,5) 2.531505E-02 (1,3,4) 0.100098
(1,2,5): (1,1,5) -4.034504E-02 (1,2,4) -2.531505E-02 (1,2,6) 9.534828E-03 (1,3,5) 0.220755
(1,2,6): (1,1,6) -4.810323E-02 (1,2,5) -9.534828E-03 (1,2,7) -9.532466E-03 (1,3,6) 0.261877
(1,2,7): (1,1,7) -4.034678E-02 (1,2,6) 9.532466E-03 (1,2,8) -2.530193E-02 (1,3,7) 0.220761
(1,2,8): (1,1,8) -1.952214E-02 (1,2,7) 2.530193E-02 (1,2,9) -1.589378E-02 (1,3,8) 0.100143
(1,2,9): (1,1,9) -6.636084E-03 (1,2,8) 1.589378E-02 (1,2,10) -5.687333E-03 (1,3,9) 3.174983E-02
(1,2,10): (1,1,10) -2.093241E-03 (1,2,9) 5.687333E-03 (1,3,10) 9.335828E-03
(1,3,1): (1,2,1) -1.876973E-03 (1,3,2) 7.551315E-03 (1,4,1) 6.007298E-03
(1,3,2): (1,2,2) -7.788386E-03 (1,3,1) -7.551315E-03 (1,3,3) 2.975003E-02 (1,4,2) 2.695073E-02
(1,3,3): (1,2,3) -3.147103E-02 (1,3,2) -2.975003E-02 (1,3,4) 8.458487E-02 (1,4,3) 0.118306
(1,3,4): (1,2,4) -0.100098 (1,3,3) -8.458487E-02 (1,3,5) 0.145882 (1,4,4) 0.414361
(1,3,5): (1,2,5) -0.220755 (1,3,4) -0.145882 (1,3,6) 5.057136E-02 (1,4,5) 1.01331
(1,3,6): (1,2,6) -0.261877 (1,3,5) -5.057136E-02 (1,3,7) -5.056243E-02 (1,4,6) 1.18395
(1,3,7): (1,2,7) -0.220761 (1,3,6) 5.056243E-02 (1,3,8) -0.145831 (1,4,7) 1.01333
(1,3,8): (1,2,8) -0.100143 (1,3,7) 0.145831 (1,3,9) -8.427574E-02 (1,4,8) 0.414493
(1,3,9): (1,2,9) -3.174983E-02 (1,3,8) 8.427574E-02 (1,3,10) -2.810052E-02 (1,4,9) 0.119158
(1,3,10): (1,2,10) -9.335828E-03 (1,3,9) 2.810052E-02 (1,4,10) 3.196604E-02
(1,4,1): (1,3,1) -6.007298E-03 (1,4,2) 2.849507E-02 (1,5,1) 1.298250E-02
(1,4,2): (1,3,2) -2.695073E-02 (1,4,1) -2.849507E-02 (1,4,3) 0.121108 (1,5,2) 6.434948E-02
(1,4,3): (1,3,3) -0.118306 (1,4,2) -0.121108 (1,4,4) 0.380541 (1,5,3) 0.316697
(1,4,4): (1,3,4) -0.414361 (1,4,3) -0.380541 (1,4,5) 0.743266 (1,5,4) 1.28679
(1,4,5): (1,3,5) -1.01331 (1,4,4) -0.743266 (1,4,6) 0.219632 (1,5,5) 3.82655
(1,4,6): (1,3,6) -1.18395 (1,4,5) -0.219632 (1,4,7) -0.219604 (1,5,6) 4.27898
(1,4,7): (1,3,7) -1.01333 (1,4,6) 0.219604 (1,4,8) -0.743101 (1,5,7) 3.82658
(1,4,8): (1,3,8) -0.414493 (1,4,7) 0.743101 (1,4,9) -0.379508 (1,5,8) 1.28705
(1,4,9): (1,3,9) -0.119158 (1,4,8) 0.379508 (1,4,10) -0.115289 (1,5,9) 0.318435
(1,4,10): (1,3,10) -3.196604E-02 (1,4,9) 0.115289 (1,5,10) 7.534280E-02
(1,5,1): (1,4,1) -1.298250E-02 (1,5,2) 7.987001E-02 (1,6,1) 1.057167E-02
(1,5,2): (1,4,2) -6.434948E-02 (1,5,1) -7.987001E-02 (1,5,3) 0.373598 (1,6,2) 6.245088E-02
(1,5,3): (1,4,3) -0.316697 (1,5,2) -0.373598 (1,5,4) 1.35124 (1,6,3) 0.383619
(1,5,4): (1,4,4) -1.28679 (1,5,3) -1.35124 (1,5,5) 3.27039 (1,6,4) 2.16105
(1,5,5): (1,4,5) -3.82655 (1,5,4) -3.27039 (1,5,6) 0.658101 (1,6,5) 11.3175
(1,5,6): (1,4,6) -4.27898 (1,5,5) -0.658101 (1,5,7) -0.658036 (1,6,6) 10.9860
(1,5,7): (1,4,7) -3.82658 (1,5,6) 0.658036 (1,5,8) -3.26999 (1,6,7) 11.3175
(1,5,8): (1,4,8) -1.28705 (1,5,7) 3.26999 (1,5,9) -1.34870 (1,6,8) 2.16122
(1,5,9): (1,4,9) -0.318435 (1,5,8) 1.34870 (1,5,10) -0.358478 (1,6,9) 0.384898
(1,5,10): (1,4,10) -7.534280E-02 (1,5,9) 0.358478 (1,6,10) 7.158180E-02
(1,6,1): (1,5,1) -1.057167E-02 (1,6,2) 0.131785 (1,7,1) -2.324653E-02
(1,6,2): (1,5,2) -6.245088E-02 (1,6,1) -0.131785 (1,6,3) 0.695751 (1,7,2) -0.132896
(1,6,3): (1,5,3) -0.383619 (1,6,2) -0.695751 (1,6,4) 3.14476 (1,7,3) -0.775512
(1,6,4): (1,5,4) -2.16105 (1,6,3) -3.14476 (1,6,5) 12.5075 (1,7,4) -4.04467
(1,6,5): (1,5,5) -11.3175 (1,6,4) -12.5075 (1,6,6) 0.355592 (1,7,5) -19.0176
(1,6,6): (1,5,6) -10.9860 (1,6,5) -0.355592 (1,6,7) -0.355499 (1,7,6) -31.5082
(1,6,7): (1,5,7) -11.3175 (1,6,6) 0.355499 (1,6,8) -12.5069 (1,7,7) -19.0177
(1,6,8): (1,5,8) -2.16122 (1,6,7) 12.5069 (1,6,9) -3.14105 (1,7,8) -4.04507
(1,6,9): (1,5,9) -0.384898 (1,6,8) 3.14105 (1,6,10) -0.672679 (1,7,9) -0.778370
(1,6,10): (1,5,10) -7.158180E-02 (1,6,9) 0.672679 (1,7,10) -0.152943
(1,7,1): (1,6,1) 2.324653E-02 (1,7,2) 2.213705E-02 (1,8,1) -1.800784E-02
(1,7,2): (1,6,2) 0.132896 (1,7,1) -2.213705E-02 (1,7,3) 5.363773E-02 (1,8,2) -0.102764
(1,7,3): (1,6,3) 0.775512 (1,7,2) -5.363773E-02 (1,7,4) -9.742403E-02 (1,8,3) -0.600089
(1,7,4): (1,6,4) 4.04467 (1,7,3) 9.742403E-02 (1,7,5) -1.77810 (1,8,4) -3.13543
(1,7,5): (1,6,5) 19.0176 (1,7,4) 1.77810 (1,7,6) -10.3117 (1,8,5) -14.5577
(1,7,6): (1,6,6) 31.5082 (1,7,5) 10.3117 (1,7,7) 10.3117 (1,8,6) -61.5400
(1,7,7): (1,6,7) 19.0177 (1,7,6) -10.3117 (1,7,8) 1.77830 (1,8,7) -14.5578
(1,7,8): (1,6,8) 4.04507 (1,7,7) -1.77830 (1,7,9) 9.858001E-02 (1,8,8) -3.13573
(1,7,9): (1,6,9) 0.778370 (1,7,8) -9.858001E-02 (1,7,10) -4.790045E-02 (1,8,9) -0.602287
(1,7,10): (1,6,10) 0.152943 (1,7,9) 4.790045E-02 (1,8,10) -0.118271
(1,8,1): (1,7,1) 1.800784E-02 (1,8,2) -6.259035E-02 (1,9,1) 1.644975E-02
(1,8,2): (1,7,2) 0.102764 (1,8,1) 6.259035E-02 (1,8,3) -0.442939 (1,9,2) 9.529857E-02
(1,8,3): (1,7,3) 0.600089 (1,8,2) 0.442939 (1,8,4) -2.62003 (1,9,3) 0.564592
(1,8,4): (1,7,4) 3.13543 (1,8,3) 2.62003 (1,8,5) -13.0417 (1,9,4) 2.99450
(1,8,5): (1,7,5) 14.5577 (1,8,4) 13.0417 (1,8,6) -54.9013 (1,9,5) 14.1154
(1,8,6): (1,7,6) 61.5400 (1,8,5) 54.9013 (1,8,7) 54.9013 (1,9,6) 60.7930
(1,8,7): (1,7,7) 14.5578 (1,8,6) -54.9013 (1,8,8) 13.0417 (1,9,7) 14.1155
(1,8,8): (1,7,8) 3.13573 (1,8,7) -13.0417 (1,8,9) 2.61927 (1,9,8) 2.99476
(1,8,9): (1,7,9) 0.602287 (1,8,8) -2.61927 (1,8,10) 0.435335 (1,9,9) 0.566576
(1,8,10): (1,7,10) 0.118271 (1,8,9) -0.435335 (1,9,10) 0.109491
(1,9,1): (1,8,1) -1.644975E-02 (1,9,2) 1.623535E-02 (1,10,1) 2.195430E-02
(1,9,2): (1,8,2) -9.529857E-02 (1,9,1) -1.623535E-02 (1,9,3) 2.579337E-02 (1,10,2) 0.125705
(1,9,3): (1,8,3) -0.564592 (1,9,2) -2.579337E-02 (1,9,4) -0.199019 (1,10,3) 0.733801
(1,9,4): (1,8,4) -2.99450 (1,9,3) 0.199019 (1,9,5) -2.03110 (1,10,4) 3.81925
(1,9,5): (1,8,5) -14.1154 (1,9,4) 2.03110 (1,9,6) -10.3505 (1,10,5) 17.7507
(1,9,6): (1,8,6) -60.7930 (1,9,5) 10.3505 (1,9,7) 10.3506 (1,10,6) 29.9501
(1,9,7): (1,8,7) -14.1155 (1,9,6) -10.3506 (1,9,8) 2.03128 (1,10,7) 17.7508
(1,9,8): (1,8,8) -2.99476 (1,9,7) -2.03128 (1,9,9) 0.199995 (1,10,8) 3.81962
(1,9,9): (1,8,9) -0.566576 (1,9,8) -0.199995 (1,9,10) -2.115772E-02 (1,10,9) 0.736493
(1,9,10): (1,8,10) -0.109491 (1,9,9) 2.115772E-02 (1,10,10) 0.144641
(1,10,1): (1,9,1) -2.195430E-02 (1,10,2) 0.119980 (1,11,1) -9.480345E-03
(1,10,2): (1,9,2) -0.125705 (1,10,1) -0.119980 (1,10,3) 0.633289 (1,11,2) -5.614878E-02
(1,10,3): (1,9,3) -0.733801 (1,10,2) -0.633289 (1,10,4) 2.85938 (1,11,3) -0.346001
(1,10,4): (1,9,4) -3.81925 (1,10,3) -2.85938 (1,10,5) 11.2575 (1,11,4) -1.95369
(1,10,5): (1,9,5) -17.7507 (1,10,4) -11.2575 (1,10,6) 0.157043 (1,11,5) -10.1540
(1,10,6): (1,9,6) -29.9501 (1,10,5) -0.157043 (1,10,7) -0.156959 (1,11,6) -9.70033
(1,10,7): (1,9,7) -17.7508 (1,10,6) 0.156959 (1,10,8) -11.2570 (1,11,7) -10.1540
(1,10,8): (1,9,8) -3.81962 (1,10,7) 11.2570 (1,10,9) -2.85600 (1,11,8) -1.95385
(1,10,9): (1,9,9) -0.736493 (1,10,8) 2.85600 (1,10,10) -0.612286 (1,11,9) -0.347144
(1,10,10): (1,9,10) -0.144641 (1,10,9) 0.612286 (1,11,10) -6.433813E-02
(1,11,1): (1,10,1) 9.480345E-03 (1,11,2) 7.328175E-02 (1,12,1) -1.189708E-02
(1,11,2): (1,10,2) 5.614878E-02 (1,11,1) -7.328175E-02 (1,11,3) 0.342618 (1,12,2) -5.895798E-02
(1,11,3): (1,10,3) 0.346001 (1,11,2) -0.342618 (1,11,4) 1.23819 (1,12,3) -0.290101
(1,11,4): (1,10,4) 1.95369 (1,11,3) -1.23819 (1,11,5) 2.98852 (1,12,4) -1.17818
(1,11,5): (1,10,5) 10.1540 (1,11,4) -2.98852 (1,11,6) 0.576267 (1,12,5) -3.49577
(1,11,6): (1,10,6) 9.70033 (1,11,5) -0.576267 (1,11,7) -0.576208 (1,12,6) -3.88561
(1,11,7): (1,10,7) 10.1540 (1,11,6) 0.576208 (1,11,8) -2.98816 (1,12,7) -3.49580
(1,11,8): (1,10,8) 1.95385 (1,11,7) 2.98816 (1,11,9) -1.23586 (1,12,8) -1.17841
(1,11,9): (1,10,9) 0.347144 (1,11,8) 1.23586 (1,11,10) -0.328743 (1,12,9) -0.291693
(1,11,10): (1,10,10) 6.433813E-02 (1,11,9) 0.328743 (1,12,10) -6.903084E-02
(1,12,1): (1,11,1) 1.189708E-02 (1,12,2) 2.621413E-02 (1,13,1) -5.526310E-03
(1,12,2): (1,11,2) 5.895798E-02 (1,12,1) -2.621413E-02 (1,12,3) 0.111354 (1,13,2) -2.478360E-02
(1,12,3): (1,11,3) 0.290101 (1,12,2) -0.111354 (1,12,4) 0.349595 (1,13,3) -0.108743
(1,12,4): (1,11,4) 1.17818 (1,12,3) -0.349595 (1,12,5) 0.681537 (1,13,4) -0.380602
(1,12,5): (1,11,5) 3.49577 (1,12,4) -0.681537 (1,12,6) 0.197564 (1,13,5) -0.929471
(1,12,6): (1,11,6) 3.88561 (1,12,5) -0.197564 (1,12,7) -0.197539 (1,13,6) -1.08240
(1,12,7): (1,11,7) 3.49580 (1,12,6) 0.197539 (1,12,8) -0.681386 (1,13,7) -0.929488
(1,12,8): (1,11,8) 1.17841 (1,12,7) 0.681386 (1,12,9) -0.348645 (1,13,8) -0.380723
(1,12,9): (1,11,9) 0.291693 (1,12,8) 0.348645 (1,12,10) -0.105999 (1,13,9) -0.109526
(1,12,10): (1,11,10) 6.903084E-02 (1,12,9) 0.105999 (1,13,10) -2.939681E-02
(1,13,1): (1,12,1) 5.526310E-03 (1,13,2) 6.956563E-03 (1,14,1) -1.729582E-03
(1,13,2): (1,12,2) 2.478360E-02 (1,13,1) -6.956563E-03 (1,13,3) 2.739286E-02 (1,14,2) -7.174046E-03
(1,13,3): (1,12,3) 0.108743 (1,13,2) -2.739286E-02 (1,13,4) 7.781909E-02 (1,14,3) -2.897494E-02
(1,13,4): (1,12,4) 0.380602 (1,13,3) -7.781909E-02 (1,13,5) 0.133992 (1,14,4) -9.209640E-02
(1,13,5): (1,12,5) 0.929471 (1,13,4) -0.133992 (1,13,6) 4.593604E-02 (1,14,5) -0.202884
(1,13,6): (1,12,6) 1.08240 (1,13,5) -4.593604E-02 (1,13,7) -4.592782E-02 (1,14,6) -0.240185
(1,13,7): (1,12,7) 0.929488 (1,13,6) 4.592782E-02 (1,13,8) -0.133945 (1,14,7) -0.202890
(1,13,8): (1,12,8) 0.380723 (1,13,7) 0.133945 (1,13,9) -7.753415E-02 (1,14,8) -9.213787E-02
(1,13,9): (1,12,9) 0.109526 (1,13,8) 7.753415E-02 (1,13,10) -2.587268E-02 (1,14,9) -2.923185E-02
(1,13,10): (1,12,10) 2.939681E-02 (1,13,9) 2.587268E-02 (1,14,10) -8.599846E-03
(1,14,1): (1,13,1) 1.729582E-03 (1,14,2) 1.512111E-03 (1,15,1) -4.095546E-04
(1,14,2): (1,13,2) 7.174046E-03 (1,14,1) -1.512111E-03 (1,14,3) 5.592307E-03 (1,15,2) -1.596101E-03
(1,14,3): (1,13,3) 2.897494E-02 (1,14,2) -5.592307E-03 (1,14,4) 1.470662E-02 (1,15,3) -6.052665E-03
(1,14,4): (1,13,4) 9.209640E-02 (1,14,3) -1.470662E-02 (1,14,5) 2.328082E-02 (1,15,4) -1.797026E-02
(1,14,5): (1,13,5) 0.202884 (1,14,4) -2.328082E-02 (1,14,6) 8.706236E-03 (1,15,5) -3.712591E-02
(1,14,6): (1,13,6) 0.240185 (1,14,5) -8.706236E-03 (1,14,7) -8.704056E-03 (1,15,6) -4.420407E-02
(1,14,7): (1,13,7) 0.202890 (1,14,6) 8.704056E-03 (1,14,8) -2.326871E-02 (1,15,7) -3.712751E-02
(1,14,8): (1,13,8) 9.213787E-02 (1,14,7) 2.326871E-02 (1,14,9) -1.463730E-02 (1,15,8) -1.798091E-02
(1,14,9): (1,13,9) 2.923185E-02 (1,14,8) 1.463730E-02 (1,14,10) -5.241369E-03 (1,15,9) -6.115908E-03
(1,14,10): (1,13,10) 8.599846E-03 (1,14,9) 5.241369E-03 (1,15,10) -1.930074E-03
(1,15,1): (1,14,1) 4.095546E-04 (1,15,2) 3.255657E-04
(1,15,2): (1,14,2) 1.596101E-03 (1,15,1) -3.255657E-04 (1,15,3) 1.135764E-03
(1,15,3): (1,14,3) 6.052665E-03 (1,15,2) -1.135764E-03 (1,15,4) 2.789410E-03
(1,15,4): (1,14,4) 1.797026E-02 (1,15,3) -2.789410E-03 (1,15,5) 4.127819E-03
(1,15,5): (1,14,5) 3.712591E-02 (1,15,4) -4.127819E-03 (1,15,6) 1.630586E-03
(1,15,6): (1,14,6) 4.420407E-02 (1,15,5) -1.630586E-03 (1,15,7) -1.630006E-03
(1,15,7): (1,14,7) 3.712751E-02 (1,15,6) 1.630006E-03 (1,15,8) -4.124751E-03
(1,15,8): (1,14,8) 1.798091E-02 (1,15,7) 4.124751E-03 (1,15,9) -2.772693E-03
(1,15,9): (1,14,9) 6.115908E-03 (1,15,8) 2.772693E-03 (1,15,10) -1.055572E-03
(1,15,10): (1,14,10) 1.930074E-03 (1,15,9) 1.055572E-03

 WEL PACKAGE (WEL-1) FLOW RATES   PERIOD      2   STEP       18
 ----------------------------------------------------------------------------------------
   NUMBER   CELLID                    RATE       NAME                                    
 ----------------------------------------------------------------------------------------
     1      (1,8,6)              -258.79695      WEL                                     
 ----------------------------------------------------------------------------------------




 API PACKAGE (MAR) FLOW RATES   PERIOD      2   STEP       18
 -----------------------------------------------
   NUMBER   CELLID                    RATE      
 -----------------------------------------------
     1      (1,6,5)               46.666667     
     2      (1,6,6)               46.666667     
     3      (1,6,7)               46.666667     
     4      (1,10,5)              39.598983     
     5      (1,10,6)              39.598983     
     6      (1,10,7)              39.598983     
 -----------------------------------------------



1
  HEAD IN LAYER   1 AT END OF TIME STEP  18 IN STRESS PERIOD    2
  ---------------------------------------------------------------------------

            1           2           3           4           5           6           7           8           9          10
 ........................................................................................................................
   1   1.3566E-05  4.8849E-05  1.7199E-04  4.7460E-04  9.2294E-04  1.1009E-03  9.2300E-04  4.7500E-04  1.7419E-04  5.9742E-05
   2   5.7969E-05  2.2196E-04  8.2869E-04  2.4252E-03  4.9554E-03  5.9084E-03  4.9557E-03  2.4267E-03  8.3775E-04  2.6906E-04
   3   2.4566E-04  1.0007E-03  3.9745E-03  1.2423E-02  2.6972E-02  3.2013E-02  2.6972E-02  1.2429E-02  4.0115E-03  1.2025E-03
   4   8.4634E-04  3.6948E-03  1.5787E-02  5.3638E-02  0.1270      0.1487      0.1270      5.3657E-02  1.5908E-02  4.3977E-03
   5   2.1443E-03  1.0123E-02  4.7307E-02  0.1800      0.4918      0.5541      0.4918      0.1801      4.7601E-02  1.1923E-02
   6   3.2011E-03  1.6358E-02  8.5344E-02  0.3881       1.478       1.509       1.478      0.3881      8.5764E-02  1.9068E-02
   7   8.7723E-04  3.0903E-03  8.4495E-03 -1.2847E-03 -0.1791      -1.229     -0.1791     -1.2612E-03  8.5884E-03  3.8024E-03
   8  -9.2339E-04 -7.1830E-03 -5.1509E-02 -0.3149      -1.661      -8.245      -1.661     -0.3149     -5.1589E-02 -8.0202E-03
   9   7.2146E-04  2.3446E-03  4.9227E-03 -1.4969E-02 -0.2184      -1.277     -0.2184     -1.4949E-02  5.0404E-03  2.9257E-03
  10   2.9163E-03  1.4896E-02  7.7737E-02  0.3539       1.346       1.360       1.346      0.3540      7.8119E-02  1.7365E-02
  11   1.9685E-03  9.2899E-03  4.3404E-02  0.1652      0.4512      0.5060      0.4512      0.1652      4.3673E-02  1.0942E-02
  12   7.7902E-04  3.3995E-03  1.4519E-02  4.9307E-02  0.1167      0.1362      0.1167      4.9324E-02  1.4631E-02  4.0465E-03
  13   2.2643E-04  9.2202E-04  3.6603E-03  1.1433E-02  2.4799E-02  2.9380E-02  2.4800E-02  1.1439E-02  3.6943E-03  1.1080E-03
  14   5.3478E-05  2.0469E-04  7.6387E-04  2.2342E-03  4.5612E-03  5.4314E-03  4.5614E-03  2.2356E-03  7.7223E-04  2.4814E-04
  15   1.2522E-05  4.5079E-05  1.5865E-04  4.3758E-04  8.5033E-04  1.0134E-03  8.5039E-04  4.3795E-04  1.6069E-04  5.5134E-05

 HEAD WILL BE SAVED ON UNIT 1043 AT END OF TIME STEP   18, STRESS PERIOD    2


  VOLUME BUDGET FOR ENTIRE MODEL AT END OF TIME STEP   18, STRESS PERIOD   2
  ---------------------------------------------------------------------------------------------------

     CUMULATIVE VOLUME      L**3       RATES FOR THIS TIME STEP      L**3/T          PACKAGE NAME    
     ------------------                 ------------------------                     ----------------

           IN:                                      IN:
           ---                                      ---
              STO-SS =          11.9194                STO-SS =       3.8032E-02     STORAGE                          
              STO-SY =       31539.4175                STO-SY =         105.1186     STORAGE                          
                 WEL =           0.0000                   WEL =           0.0000     WEL-1                            
                 API =       48463.4426                   API =         258.7969     MAR                              
                 CHD =       2.8247E-08                   CHD =           0.0000     CHD_0                            

            TOTAL IN =       80014.7795              TOTAL IN =         363.9536

          OUT:                                     OUT:
          ----                                     ----
              STO-SS =          16.4876                STO-SS =       5.4619E-02     STORAGE                          
              STO-SY =       31534.8493                STO-SY =         105.1021     STORAGE                          
                 WEL =       48463.4426                   WEL =         258.7969     WEL-1                            
                 API =           0.0000                   API =           0.0000     MAR                              
                 CHD =       3.0388E-08                   CHD =           0.0000     CHD_0                            

           TOTAL OUT =       80014.7795             TOTAL OUT =         363.9536

            IN - OUT =       2.9322E-08              IN - OUT =       3.7131E-09

 PERCENT DISCREPANCY =           0.00     PERCENT DISCREPANCY =           0.00




         TIME SUMMARY AT END OF TIME STEP   18 IN STRESS PERIOD    2
                    SECONDS     MINUTES      HOURS       DAYS        YEARS
                    -----------------------------------------------------------
   TIME STEP LENGTH 8.64000E+05  14400.      240.00      10.000     2.73785E-02
 STRESS PERIOD TIME 1.55520E+07 2.59200E+05  4320.0      180.00     0.49281    
         TOTAL TIME 1.56384E+07 2.60640E+05  4344.0      181.00     0.49555    


end timestep


start timestep kper="2" kstp="19" mode="normal"

 UBDSV1 SAVING           STO-SS ON UNIT   1042 AT TIME STEP     19, STRESS PERIOD      2
 UBDSV1 SAVING           STO-SY ON UNIT   1042 AT TIME STEP     19, STRESS PERIOD      2
 UBDSV1 SAVING     FLOW-JA-FACE ON UNIT   1042 AT TIME STEP     19, STRESS PERIOD      2
 UBDSV06 SAVING       DATA-SPDIS IN MODEL GWF              PACKAGE NPF             CONNECTED TO MODEL GWF              PACKAGE NPF              ON UNIT   1042 AT TIME STEP     19, STRESS PERIOD      2
 UBDSV06 SAVING              WEL IN MODEL GWF              PACKAGE GWF             CONNECTED TO MODEL GWF              PACKAGE WEL-1            ON UNIT   1042 AT TIME STEP     19, STRESS PERIOD      2
 UBDSV06 SAVING              API IN MODEL GWF              PACKAGE GWF             CONNECTED TO MODEL GWF              PACKAGE MAR              ON UNIT   1042 AT TIME STEP     19, STRESS PERIOD      2
 UBDSV06 SAVING              CHD IN MODEL GWF              PACKAGE GWF             CONNECTED TO MODEL GWF              PACKAGE CHD_0            ON UNIT   1042 AT TIME STEP     19, STRESS PERIOD      2

    CALCULATED INTERCELL FLOW FOR PERIOD 2 STEP 19
(1,1,1): (1,1,2) 4.660013E-04 (1,2,1) 5.859219E-04
(1,1,2): (1,1,1) -4.660013E-04 (1,1,3) 1.579510E-03 (1,2,2) 2.202769E-03
(1,1,3): (1,1,2) -1.579510E-03 (1,1,4) 3.764271E-03 (1,2,3) 8.096661E-03
(1,1,4): (1,1,3) -3.764271E-03 (1,1,5) 5.433633E-03 (1,2,4) 2.337731E-02
(1,1,5): (1,1,4) -5.433633E-03 (1,1,6) 2.175214E-03 (1,2,5) 4.730842E-02
(1,1,6): (1,1,5) -2.175214E-03 (1,1,7) -2.174268E-03 (1,2,6) 5.631330E-02
(1,1,7): (1,1,6) 2.174268E-03 (1,1,8) -5.428791E-03 (1,2,7) 4.731092E-02
(1,1,8): (1,1,7) 5.428791E-03 (1,1,9) -3.738716E-03 (1,2,8) 2.339344E-02
(1,1,9): (1,1,8) 3.738716E-03 (1,1,10) -1.460853E-03 (1,2,9) 8.189452E-03
(1,1,10): (1,1,9) 1.460853E-03 (1,2,10) 2.677158E-03
(1,2,1): (1,1,1) -5.859219E-04 (1,2,2) 2.082847E-03 (1,3,1) 2.393995E-03
(1,2,2): (1,1,2) -2.202769E-03 (1,2,1) -2.082847E-03 (1,2,3) 7.473365E-03 (1,3,2) 9.565765E-03
(1,2,3): (1,1,3) -8.096661E-03 (1,2,2) -7.473365E-03 (1,2,4) 1.904426E-02 (1,3,3) 3.739943E-02
(1,2,4): (1,1,4) -2.337731E-02 (1,2,3) -1.904426E-02 (1,2,5) 2.936045E-02 (1,3,4) 0.115438
(1,2,5): (1,1,5) -4.730842E-02 (1,2,4) -2.936045E-02 (1,2,6) 1.117604E-02 (1,3,5) 0.248725
(1,2,6): (1,1,6) -5.631330E-02 (1,2,5) -1.117604E-02 (1,2,7) -1.117259E-02 (1,3,6) 0.294691
(1,2,7): (1,1,7) -4.731092E-02 (1,2,6) 1.117259E-02 (1,2,8) -2.934198E-02 (1,3,7) 0.248734
(1,2,8): (1,1,8) -2.339344E-02 (1,2,7) 2.934198E-02 (1,2,9) -1.894203E-02 (1,3,8) 0.115499
(1,2,9): (1,1,9) -8.189452E-03 (1,2,8) 1.894203E-02 (1,2,10) -6.973079E-03 (1,3,9) 3.776474E-02
(1,2,10): (1,1,10) -2.677158E-03 (1,2,9) 6.973079E-03 (1,3,10) 1.152556E-02
(1,3,1): (1,2,1) -2.393995E-03 (1,3,2) 9.254594E-03 (1,4,1) 7.375329E-03
(1,3,2): (1,2,2) -9.565765E-03 (1,3,1) -9.254594E-03 (1,3,3) 3.530645E-02 (1,4,2) 3.182463E-02
(1,3,3): (1,2,3) -3.739943E-02 (1,3,2) -3.530645E-02 (1,3,4) 9.706864E-02 (1,4,3) 0.135032
(1,3,4): (1,2,4) -0.115438 (1,3,3) -9.706864E-02 (1,3,5) 0.162533 (1,4,4) 0.458464
(1,3,5): (1,2,5) -0.248725 (1,3,4) -0.162533 (1,3,6) 5.703414E-02 (1,4,5) 1.09380
(1,3,6): (1,2,6) -0.294691 (1,3,5) -5.703414E-02 (1,3,7) -5.702149E-02 (1,4,6) 1.27674
(1,3,7): (1,2,7) -0.248734 (1,3,6) 5.702149E-02 (1,3,8) -0.162463 (1,4,7) 1.09383
(1,3,8): (1,2,8) -0.115499 (1,3,7) 0.162463 (1,3,9) -9.666182E-02 (1,4,8) 0.458636
(1,3,9): (1,2,9) -3.776474E-02 (1,3,8) 9.666182E-02 (1,3,10) -3.321107E-02 (1,4,9) 0.136107
(1,3,10): (1,2,10) -1.152556E-02 (1,3,9) 3.321107E-02 (1,4,10) 3.794039E-02
(1,4,1): (1,3,1) -7.375329E-03 (1,4,2) 3.370435E-02 (1,5,1) 1.527586E-02
(1,4,2): (1,3,2) -3.182463E-02 (1,4,1) -3.370435E-02 (1,4,3) 0.138517 (1,5,2) 7.276714E-02
(1,4,3): (1,3,3) -0.135032 (1,4,2) -0.138517 (1,4,4) 0.420379 (1,5,3) 0.346044
(1,4,4): (1,3,4) -0.458464 (1,4,3) -0.420379 (1,4,5) 0.796042 (1,5,4) 1.36327
(1,4,5): (1,3,5) -1.09380 (1,4,4) -0.796042 (1,4,6) 0.238159 (1,5,5) 3.95711
(1,4,6): (1,3,6) -1.27674 (1,4,5) -0.238159 (1,4,7) -0.238121 (1,5,6) 4.41759
(1,4,7): (1,3,7) -1.09383 (1,4,6) 0.238121 (1,4,8) -0.795824 (1,5,7) 3.95716
(1,4,8): (1,3,8) -0.458636 (1,4,7) 0.795824 (1,4,9) -0.419064 (1,5,8) 1.36360
(1,4,9): (1,3,9) -0.136107 (1,4,8) 0.419064 (1,4,10) -0.131373 (1,5,9) 0.348152
(1,4,10): (1,3,10) -3.794039E-02 (1,4,9) 0.131373 (1,5,10) 8.561940E-02
(1,5,1): (1,4,1) -1.527586E-02 (1,5,2) 9.120621E-02 (1,6,1) 1.154152E-02
(1,5,2): (1,4,2) -7.276714E-02 (1,5,1) -9.120621E-02 (1,5,3) 0.411972 (1,6,2) 6.579644E-02
(1,5,3): (1,4,3) -0.346044 (1,5,2) -0.411972 (1,5,4) 1.43834 (1,6,3) 0.393332
(1,5,4): (1,4,4) -1.36327 (1,5,3) -1.43834 (1,5,5) 3.37648 (1,6,4) 2.17280
(1,5,5): (1,4,5) -3.95711 (1,5,4) -3.37648 (1,5,6) 0.684095 (1,6,5) 11.2790
(1,5,6): (1,4,6) -4.41759 (1,5,5) -0.684095 (1,5,7) -0.684009 (1,6,6) 10.8769
(1,5,7): (1,4,7) -3.95716 (1,5,6) 0.684009 (1,5,8) -3.37598 (1,6,7) 11.2791
(1,5,8): (1,4,8) -1.36360 (1,5,7) 3.37598 (1,5,9) -1.43520 (1,6,8) 2.17300
(1,5,9): (1,4,9) -0.348152 (1,5,8) 1.43520 (1,5,10) -0.394025 (1,6,9) 0.394770
(1,5,10): (1,4,10) -8.561940E-02 (1,5,9) 0.394025 (1,6,10) 7.570911E-02
(1,6,1): (1,5,1) -1.154152E-02 (1,6,2) 0.145504 (1,7,1) -2.710260E-02
(1,6,2): (1,5,2) -6.579644E-02 (1,6,1) -0.145504 (1,6,3) 0.740622 (1,7,2) -0.148941
(1,6,3): (1,5,3) -0.393332 (1,6,2) -0.740622 (1,6,4) 3.23515 (1,7,3) -0.839717
(1,6,4): (1,5,4) -2.17280 (1,6,3) -3.23515 (1,6,5) 12.5694 (1,7,4) -4.24605
(1,6,5): (1,5,5) -11.2790 (1,6,4) -12.5694 (1,6,6) 0.316100 (1,7,5) -19.4874
(1,6,6): (1,5,6) -10.8769 (1,6,5) -0.316100 (1,6,7) -0.315979 (1,7,6) -32.2045
(1,6,7): (1,5,7) -11.2791 (1,6,6) 0.315979 (1,6,8) -12.5687 (1,7,7) -19.4875
(1,6,8): (1,5,8) -2.17300 (1,6,7) 12.5687 (1,6,9) -3.23070 (1,7,8) -4.24655
(1,6,9): (1,5,9) -0.394770 (1,6,8) 3.23070 (1,6,10) -0.714084 (1,7,9) -0.843154
(1,6,10): (1,5,10) -7.570911E-02 (1,6,9) 0.714084 (1,7,10) -0.172181
(1,7,1): (1,6,1) 2.710260E-02 (1,7,2) 2.367024E-02 (1,8,1) -2.101918E-02
(1,7,2): (1,6,2) 0.148941 (1,7,1) -2.367024E-02 (1,7,3) 5.051728E-02 (1,8,2) -0.115379
(1,7,3): (1,6,3) 0.839717 (1,7,2) -5.051728E-02 (1,7,4) -0.139800 (1,8,3) -0.651377
(1,7,4): (1,6,4) 4.24605 (1,7,3) 0.139800 (1,7,5) -1.93499 (1,8,4) -3.30007
(1,7,5): (1,6,5) 19.4874 (1,7,4) 1.93499 (1,7,6) -10.5077 (1,8,5) -14.9201
(1,7,6): (1,6,6) 32.2045 (1,7,5) 10.5077 (1,7,7) 10.5077 (1,8,6) -61.6556
(1,7,7): (1,6,7) 19.4875 (1,7,6) -10.5077 (1,7,8) 1.93524 (1,8,7) -14.9201
(1,7,8): (1,6,8) 4.24655 (1,7,7) -1.93524 (1,7,9) 0.141192 (1,8,8) -3.30044
(1,7,9): (1,6,9) 0.843154 (1,7,8) -0.141192 (1,7,10) -4.395992E-02 (1,8,9) -0.654022
(1,7,10): (1,6,10) 0.172181 (1,7,9) 4.395992E-02 (1,8,10) -0.133376
(1,8,1): (1,7,1) 2.101918E-02 (1,8,2) -7.065268E-02 (1,9,1) 1.914179E-02
(1,8,2): (1,7,2) 0.115379 (1,8,1) 7.065268E-02 (1,8,3) -0.484618 (1,9,2) 0.106732
(1,8,3): (1,7,3) 0.651377 (1,8,2) 0.484618 (1,8,4) -2.77494 (1,9,3) 0.611551
(1,8,4): (1,7,4) 3.30007 (1,8,3) 2.77494 (1,8,5) -13.3921 (1,9,4) 3.14512
(1,8,5): (1,7,5) 14.9201 (1,8,4) 13.3921 (1,8,6) -54.7485 (1,9,5) 14.4287
(1,8,6): (1,7,6) 61.6556 (1,8,5) 54.7485 (1,8,7) 54.7485 (1,9,6) 60.8279
(1,8,7): (1,7,7) 14.9201 (1,8,6) -54.7485 (1,8,8) 13.3921 (1,9,7) 14.4288
(1,8,8): (1,7,8) 3.30044 (1,8,7) -13.3921 (1,8,9) 2.77404 (1,9,8) 3.14545
(1,8,9): (1,7,9) 0.654022 (1,8,8) -2.77404 (1,8,10) 0.475783 (1,9,9) 0.613930
(1,8,10): (1,7,10) 0.133376 (1,8,9) -0.475783 (1,9,10) 0.123155
(1,9,1): (1,8,1) -1.914179E-02 (1,9,2) 1.690841E-02 (1,10,1) 2.560114E-02
(1,9,2): (1,8,2) -0.106732 (1,9,1) -1.690841E-02 (1,9,3) 1.956786E-02 (1,10,2) 0.140899
(1,9,3): (1,8,3) -0.611551 (1,9,2) -1.956786E-02 (1,9,4) -0.250542 (1,10,3) 0.793993
(1,9,4): (1,8,4) -3.14512 (1,9,3) 0.250542 (1,9,5) -2.21680 (1,10,4) 3.99302
(1,9,5): (1,8,5) -14.4287 (1,9,4) 2.21680 (1,9,6) -10.5490 (1,10,5) 17.8963
(1,9,6): (1,8,6) -60.8279 (1,9,5) 10.5490 (1,9,7) 10.5490 (1,10,6) 30.2684
(1,9,7): (1,8,7) -14.4288 (1,9,6) -10.5490 (1,9,8) 2.21702 (1,10,7) 17.8964
(1,9,8): (1,8,8) -3.14545 (1,9,7) -2.21702 (1,9,9) 0.251712 (1,10,8) 3.99349
(1,9,9): (1,8,9) -0.613930 (1,9,8) -0.251712 (1,9,10) -1.431952E-02 (1,10,9) 0.797230
(1,9,10): (1,8,10) -0.123155 (1,9,9) 1.431952E-02 (1,10,10) 0.162856
(1,10,1): (1,9,1) -2.560114E-02 (1,10,2) 0.132196 (1,11,1) -1.029958E-02
(1,10,2): (1,9,2) -0.140899 (1,10,1) -0.132196 (1,10,3) 0.671879 (1,11,2) -5.885933E-02
(1,10,3): (1,9,3) -0.793993 (1,10,2) -0.671879 (1,10,4) 2.91730 (1,11,3) -0.352521
(1,10,4): (1,9,4) -3.99302 (1,10,3) -2.91730 (1,10,5) 11.0109 (1,11,4) -1.94097
(1,10,5): (1,9,5) -17.8963 (1,10,4) -11.0109 (1,10,6) 9.426034E-02 (1,11,5) -9.81770
(1,10,6): (1,9,6) -30.2684 (1,10,5) -9.426034E-02 (1,10,7) -9.415194E-02 (1,11,6) -9.27745
(1,10,7): (1,9,7) -17.8964 (1,10,6) 9.415194E-02 (1,10,8) -11.0103 (1,11,7) -9.81773
(1,10,8): (1,9,8) -3.99349 (1,10,7) 11.0103 (1,10,9) -2.91326 (1,11,8) -1.94115
(1,10,9): (1,9,9) -0.797230 (1,10,8) 2.91326 (1,10,10) -0.647762 (1,11,9) -0.353800
(1,10,10): (1,9,10) -0.162856 (1,10,9) 0.647762 (1,11,10) -6.770642E-02
(1,11,1): (1,10,1) 1.029958E-02 (1,11,2) 8.360062E-02 (1,12,1) -1.398336E-02
(1,11,2): (1,10,2) 5.885933E-02 (1,11,1) -8.360062E-02 (1,11,3) 0.377297 (1,12,2) -6.658811E-02
(1,11,3): (1,10,3) 0.352521 (1,11,2) -0.377297 (1,11,4) 1.31451 (1,12,3) -0.316470
(1,11,4): (1,10,4) 1.94097 (1,11,3) -1.31451 (1,11,5) 3.06272 (1,12,4) -1.24460
(1,11,5): (1,10,5) 9.81770 (1,11,4) -3.06272 (1,11,6) 0.595444 (1,12,5) -3.59024
(1,11,6): (1,10,6) 9.27745 (1,11,5) -0.595444 (1,11,7) -0.595366 (1,12,6) -3.98328
(1,11,7): (1,10,7) 9.81773 (1,11,6) 0.595366 (1,11,8) -3.06226 (1,12,7) -3.59029
(1,11,8): (1,10,8) 1.94115 (1,11,7) 3.06226 (1,11,9) -1.31163 (1,12,8) -1.24490
(1,11,9): (1,10,9) 0.353800 (1,11,8) 1.31163 (1,11,10) -0.360842 (1,12,9) -0.318399
(1,11,10): (1,10,10) 6.770642E-02 (1,11,9) 0.360842 (1,12,10) -7.835104E-02
(1,12,1): (1,11,1) 1.398336E-02 (1,12,2) 3.098694E-02 (1,13,1) -6.780537E-03
(1,12,2): (1,11,2) 6.658811E-02 (1,12,1) -3.098694E-02 (1,12,3) 0.127264 (1,13,2) -2.924541E-02
(1,12,3): (1,11,3) 0.316470 (1,12,2) -0.127264 (1,12,4) 0.385751 (1,13,3) -0.124015
(1,12,4): (1,11,4) 1.24460 (1,12,3) -0.385751 (1,12,5) 0.728200 (1,13,4) -0.420624
(1,12,5): (1,11,5) 3.59024 (1,12,4) -0.728200 (1,12,6) 0.213833 (1,13,5) -1.00123
(1,12,6): (1,11,6) 3.98328 (1,12,5) -0.213833 (1,12,7) -0.213799 (1,13,6) -1.16480
(1,12,7): (1,11,7) 3.59029 (1,12,6) 0.213799 (1,12,8) -0.728000 (1,13,7) -1.00126
(1,12,8): (1,11,8) 1.24490 (1,12,7) 0.728000 (1,12,9) -0.384542 (1,13,8) -0.420782
(1,12,9): (1,11,9) 0.318399 (1,12,8) 0.384542 (1,12,10) -0.120694 (1,13,9) -0.125004
(1,12,10): (1,11,10) 7.835104E-02 (1,12,9) 0.120694 (1,13,10) -3.486719E-02
(1,13,1): (1,12,1) 6.780537E-03 (1,13,2) 8.521680E-03 (1,14,1) -2.205001E-03
(1,13,2): (1,12,2) 2.924541E-02 (1,13,1) -8.521680E-03 (1,13,3) 3.249175E-02 (1,14,2) -8.806912E-03
(1,13,3): (1,12,3) 0.124015 (1,13,2) -3.249175E-02 (1,13,4) 8.924385E-02 (1,14,3) -3.441431E-02
(1,13,4): (1,12,4) 0.420624 (1,13,3) -8.924385E-02 (1,13,5) 0.149128 (1,14,4) -0.106140
(1,13,5): (1,12,5) 1.00123 (1,13,4) -0.149128 (1,13,6) 5.175934E-02 (1,14,5) -0.228381
(1,13,6): (1,12,6) 1.16480 (1,13,5) -5.175934E-02 (1,13,7) -5.174770E-02 (1,14,6) -0.270031
(1,13,7): (1,12,7) 1.00126 (1,13,6) 5.174770E-02 (1,13,8) -0.149063 (1,14,7) -0.228389
(1,13,8): (1,12,8) 0.420782 (1,13,7) 0.149063 (1,13,9) -8.886902E-02 (1,14,8) -0.106196
(1,13,9): (1,12,9) 0.125004 (1,13,8) 8.886902E-02 (1,13,10) -3.056151E-02 (1,14,9) -3.475078E-02
(1,13,10): (1,12,10) 3.486719E-02 (1,13,9) 3.056151E-02 (1,14,10) -1.061180E-02
(1,14,1): (1,13,1) 2.205001E-03 (1,14,2) 1.919788E-03 (1,15,1) -5.402165E-04
(1,14,2): (1,13,2) 8.806912E-03 (1,14,1) -1.919788E-03 (1,14,3) 6.884846E-03 (1,15,2) -2.030163E-03
(1,14,3): (1,13,3) 3.441431E-02 (1,14,2) -6.884846E-03 (1,14,4) 1.753022E-02 (1,15,3) -7.458723E-03
(1,14,4): (1,13,4) 0.106140 (1,14,3) -1.753022E-02 (1,14,5) 2.698366E-02 (1,15,4) -2.152125E-02
(1,14,5): (1,13,5) 0.228381 (1,14,4) -2.698366E-02 (1,14,6) 1.019885E-02 (1,15,5) -4.350859E-02
(1,14,6): (1,13,6) 0.270031 (1,14,5) -1.019885E-02 (1,14,7) -1.019567E-02 (1,15,6) -5.171864E-02
(1,14,7): (1,13,7) 0.228389 (1,14,6) 1.019567E-02 (1,14,8) -2.696662E-02 (1,15,7) -4.351090E-02
(1,14,8): (1,13,8) 0.106196 (1,14,7) 2.696662E-02 (1,14,9) -1.743593E-02 (1,15,8) -2.153613E-02
(1,14,9): (1,13,9) 3.475078E-02 (1,14,8) 1.743593E-02 (1,14,10) -6.423543E-03 (1,15,9) -7.544284E-03
(1,14,10): (1,13,10) 1.061180E-02 (1,14,9) 6.423543E-03 (1,15,10) -2.467511E-03
(1,15,1): (1,14,1) 5.402165E-04 (1,15,2) 4.298434E-04
(1,15,2): (1,14,2) 2.030163E-03 (1,15,1) -4.298434E-04 (1,15,3) 1.456317E-03
(1,15,3): (1,14,3) 7.458723E-03 (1,15,2) -1.456317E-03 (1,15,4) 3.468254E-03
(1,15,4): (1,14,4) 2.152125E-02 (1,15,3) -3.468254E-03 (1,15,5) 4.999952E-03
(1,15,5): (1,14,5) 4.350859E-02 (1,15,4) -4.999952E-03 (1,15,6) 1.992202E-03
(1,15,6): (1,14,6) 5.171864E-02 (1,15,5) -1.992202E-03 (1,15,7) -1.991327E-03
(1,15,7): (1,14,7) 4.351090E-02 (1,15,6) 1.991327E-03 (1,15,8) -4.995481E-03
(1,15,8): (1,14,8) 2.153613E-02 (1,15,7) 4.995481E-03 (1,15,9) -3.444667E-03
(1,15,9): (1,14,9) 7.544284E-03 (1,15,8) 3.444667E-03 (1,15,10) -1.346827E-03
(1,15,10): (1,14,10) 2.467511E-03 (1,15,9) 1.346827E-03

 WEL PACKAGE (WEL-1) FLOW RATES   PERIOD      2   STEP       19
 ----------------------------------------------------------------------------------------
   NUMBER   CELLID                    RATE       NAME                                    
 ----------------------------------------------------------------------------------------
     1      (1,8,6)              -249.83976      WEL                                     
 ----------------------------------------------------------------------------------------




 API PACKAGE (MAR) FLOW RATES   PERIOD      2   STEP       19
 -----------------------------------------------
   NUMBER   CELLID                    RATE      
 -----------------------------------------------
     1      (1,6,5)               46.666667     
     2      (1,6,6)               46.666667     
     3      (1,6,7)               46.666667     
     4      (1,10,5)              36.613254     
     5      (1,10,6)              36.613254     
     6      (1,10,7)              36.613254     
 -----------------------------------------------



1
  HEAD IN LAYER   1 AT END OF TIME STEP  19 IN STRESS PERIOD    2
  ---------------------------------------------------------------------------

            1           2           3           4           5           6           7           8           9          10
 ........................................................................................................................
   1   1.8823E-05  6.5422E-05  2.2337E-04  5.9977E-04  1.1431E-03  1.3606E-03  1.1432E-03  6.0035E-04  2.2650E-04  8.0422E-05
   2   7.7414E-05  2.8569E-04  1.0330E-03  2.9368E-03  5.8711E-03  6.9880E-03  5.8715E-03  2.9390E-03  1.0454E-03  3.4813E-04
   3   3.1681E-04  1.2422E-03  4.7711E-03  1.4464E-02  3.0668E-02  3.6350E-02  3.0669E-02  1.4472E-02  4.8200E-03  1.5005E-03
   4   1.0543E-03  4.4232E-03  1.8250E-02  6.0037E-02  0.1386      0.1620      0.1386      6.0062E-02  1.8406E-02  5.2925E-03
   5   2.5815E-03  1.1691E-02  5.2673E-02  0.1938      0.5149      0.5795      0.5149      0.1938      5.3037E-02  1.3843E-02
   6   3.7352E-03  1.8259E-02  9.1649E-02  0.4026       1.496       1.523       1.496      0.4027      9.2154E-02  2.1397E-02
   7   1.0259E-03  3.3921E-03  8.4396E-03 -5.5286E-03 -0.1991      -1.271     -0.1991     -5.4988E-03  8.6083E-03  4.2160E-03
   8  -1.0758E-03 -8.1418E-03 -5.6643E-02 -0.3357      -1.721      -8.335      -1.721     -0.3357     -5.6738E-02 -9.1159E-03
   9   8.3824E-04  2.5287E-03  4.4846E-03 -2.0558E-02 -0.2427      -1.324     -0.2427     -2.0533E-02  4.6269E-03  3.1956E-03
  10   3.3975E-03  1.6595E-02  8.3229E-02  0.3647       1.336       1.344       1.336      0.3648      8.3688E-02  1.9450E-02
  11   2.3679E-03  1.0719E-02  4.8267E-02  0.1774      0.4700      0.5265      0.4700      0.1775      4.8602E-02  1.2692E-02
  12   9.6987E-04  4.0673E-03  1.6772E-02  5.5136E-02  0.1270      0.1481      0.1270      5.5159E-02  1.6916E-02  4.8670E-03
  13   2.9189E-04  1.1440E-03  4.3917E-03  1.3304E-02  2.8175E-02  3.3334E-02  2.8176E-02  1.3312E-02  4.4368E-03  1.3820E-03
  14   7.1392E-05  2.6337E-04  9.5178E-04  2.7043E-03  5.4012E-03  6.4205E-03  5.4016E-03  2.7064E-03  9.6323E-04  3.2094E-04
  15   1.7370E-05  6.0354E-05  2.0598E-04  5.5279E-04  1.0527E-03  1.2519E-03  1.0528E-03  5.5332E-04  2.0888E-04  7.4196E-05

 HEAD WILL BE SAVED ON UNIT 1043 AT END OF TIME STEP   19, STRESS PERIOD    2


  VOLUME BUDGET FOR ENTIRE MODEL AT END OF TIME STEP   19, STRESS PERIOD   2
  ---------------------------------------------------------------------------------------------------

     CUMULATIVE VOLUME      L**3       RATES FOR THIS TIME STEP      L**3/T          PACKAGE NAME    
     ------------------                 ------------------------                     ----------------

           IN:                                      IN:
           ---                                      ---
              STO-SS =          12.3130                STO-SS =       3.9363E-02     STORAGE                          
              STO-SY =       32535.1738                STO-SY =          99.5756     STORAGE                          
                 WEL =           0.0000                   WEL =           0.0000     WEL-1                            
                 API =       50961.8402                   API =         249.8398     MAR                              
                 CHD =       2.8247E-08                   CHD =           0.0000     CHD_0                            

            TOTAL IN =       83509.3270              TOTAL IN =         349.4548

          OUT:                                     OUT:
          ----                                     ----
              STO-SS =          17.0040                STO-SS =       5.1639E-02     STORAGE                          
              STO-SY =       32530.4829                STO-SY =          99.5634     STORAGE                          
                 WEL =       50961.8402                   WEL =         249.8398     WEL-1                            
                 API =           0.0000                   API =           0.0000     MAR                              
                 CHD =       3.0388E-08                   CHD =           0.0000     CHD_0                            

           TOTAL OUT =       83509.3270             TOTAL OUT =         349.4548

            IN - OUT =       8.5725E-08              IN - OUT =       5.6401E-09

 PERCENT DISCREPANCY =           0.00     PERCENT DISCREPANCY =           0.00




         TIME SUMMARY AT END OF TIME STEP   19 IN STRESS PERIOD    2
                    SECONDS     MINUTES      HOURS       DAYS        YEARS
                    -----------------------------------------------------------
   TIME STEP LENGTH 8.64000E+05  14400.      240.00      10.000     2.73785E-02
 STRESS PERIOD TIME 1.64160E+07 2.73600E+05  4560.0      190.00     0.52019    
         TOTAL TIME 1.65024E+07 2.75040E+05  4584.0      191.00     0.52293    


end timestep


start timestep kper="2" kstp="20" mode="normal"

 UBDSV1 SAVING           STO-SS ON UNIT   1042 AT TIME STEP     20, STRESS PERIOD      2
 UBDSV1 SAVING           STO-SY ON UNIT   1042 AT TIME STEP     20, STRESS PERIOD      2
 UBDSV1 SAVING     FLOW-JA-FACE ON UNIT   1042 AT TIME STEP     20, STRESS PERIOD      2
 UBDSV06 SAVING       DATA-SPDIS IN MODEL GWF              PACKAGE NPF             CONNECTED TO MODEL GWF              PACKAGE NPF              ON UNIT   1042 AT TIME STEP     20, STRESS PERIOD      2
 UBDSV06 SAVING              WEL IN MODEL GWF              PACKAGE GWF             CONNECTED TO MODEL GWF              PACKAGE WEL-1            ON UNIT   1042 AT TIME STEP     20, STRESS PERIOD      2
 UBDSV06 SAVING              API IN MODEL GWF              PACKAGE GWF             CONNECTED TO MODEL GWF              PACKAGE MAR              ON UNIT   1042 AT TIME STEP     20, STRESS PERIOD      2
 UBDSV06 SAVING              CHD IN MODEL GWF              PACKAGE GWF             CONNECTED TO MODEL GWF              PACKAGE CHD_0            ON UNIT   1042 AT TIME STEP     20, STRESS PERIOD      2

    CALCULATED INTERCELL FLOW FOR PERIOD 2 STEP 20
(1,1,1): (1,1,2) 6.051727E-04 (1,2,1) 7.601508E-04
(1,1,2): (1,1,1) -6.051727E-04 (1,1,3) 1.995176E-03 (1,2,2) 2.760097E-03
(1,1,3): (1,1,2) -1.995176E-03 (1,1,4) 4.618308E-03 (1,2,3) 9.844018E-03
(1,1,4): (1,1,3) -4.618308E-03 (1,1,5) 6.505173E-03 (1,2,4) 2.766720E-02
(1,1,5): (1,1,4) -6.505173E-03 (1,1,6) 2.623465E-03 (1,2,5) 5.487155E-02
(1,1,6): (1,1,5) -2.623465E-03 (1,1,7) -2.622066E-03 (1,2,6) 6.520209E-02
(1,1,7): (1,1,6) 2.622066E-03 (1,1,8) -6.498255E-03 (1,2,7) 5.487509E-02
(1,1,8): (1,1,7) 6.498255E-03 (1,1,9) -4.582932E-03 (1,2,8) 2.768932E-02
(1,1,9): (1,1,8) 4.582932E-03 (1,1,10) -1.836037E-03 (1,2,9) 9.967337E-03
(1,1,10): (1,1,9) 1.836037E-03 (1,2,10) 3.371145E-03
(1,2,1): (1,1,1) -7.601508E-04 (1,2,2) 2.605116E-03 (1,3,1) 3.006619E-03
(1,2,2): (1,1,2) -2.760097E-03 (1,2,1) -2.605116E-03 (1,2,3) 9.079043E-03 (1,3,2) 1.158769E-02
(1,2,3): (1,1,3) -9.844018E-03 (1,2,2) -9.079043E-03 (1,2,4) 2.244056E-02 (1,3,3) 4.390603E-02
(1,2,4): (1,1,4) -2.766720E-02 (1,2,3) -2.244056E-02 (1,2,5) 3.370377E-02 (1,3,4) 0.131742
(1,2,5): (1,1,5) -5.487155E-02 (1,2,4) -3.370377E-02 (1,2,6) 1.294861E-02 (1,3,5) 0.277755
(1,2,6): (1,1,6) -6.520209E-02 (1,2,5) -1.294861E-02 (1,2,7) -1.294368E-02 (1,3,6) 0.328637
(1,2,7): (1,1,7) -5.487509E-02 (1,2,6) 1.294368E-02 (1,2,8) -3.367827E-02 (1,3,7) 0.277768
(1,2,8): (1,1,8) -2.768932E-02 (1,2,7) 3.367827E-02 (1,2,9) -2.230396E-02 (1,3,8) 0.131823
(1,2,9): (1,1,9) -9.967337E-03 (1,2,8) 2.230396E-02 (1,2,10) -8.432128E-03 (1,3,9) 4.437672E-02
(1,2,10): (1,1,10) -3.371145E-03 (1,2,9) 8.432128E-03 (1,3,10) 1.403175E-02
(1,3,1): (1,2,1) -3.006619E-03 (1,3,2) 1.118615E-02 (1,4,1) 8.929790E-03
(1,3,2): (1,2,2) -1.158769E-02 (1,3,1) -1.118615E-02 (1,3,3) 4.139658E-02 (1,4,2) 3.712596E-02
(1,3,3): (1,2,3) -4.390603E-02 (1,3,2) -4.139658E-02 (1,3,4) 0.110258 (1,4,3) 0.152526
(1,3,4): (1,2,4) -0.131742 (1,3,3) -0.110258 (1,3,5) 0.179575 (1,4,4) 0.502951
(1,3,5): (1,2,5) -0.277755 (1,3,4) -0.179575 (1,3,6) 6.369689E-02 (1,4,5) 1.17275
(1,3,6): (1,2,6) -0.328637 (1,3,5) -6.369689E-02 (1,3,7) -6.367932E-02 (1,4,6) 1.36739
(1,3,7): (1,2,7) -0.277768 (1,3,6) 6.367932E-02 (1,3,8) -0.179481 (1,4,7) 1.17278
(1,3,8): (1,2,8) -0.131823 (1,3,7) 0.179481 (1,3,9) -0.109731 (1,4,8) 0.503173
(1,3,9): (1,2,9) -4.437672E-02 (1,3,8) 0.109731 (1,3,10) -3.877539E-02 (1,4,9) 0.153864
(1,3,10): (1,2,10) -1.403175E-02 (1,3,9) 3.877539E-02 (1,4,10) 4.448089E-02
(1,4,1): (1,3,1) -8.929790E-03 (1,4,2) 3.938295E-02 (1,5,1) 1.775337E-02
(1,4,2): (1,3,2) -3.712596E-02 (1,4,1) -3.938295E-02 (1,4,3) 0.156802 (1,5,2) 8.142898E-02
(1,4,3): (1,3,3) -0.152526 (1,4,2) -0.156802 (1,4,4) 0.460536 (1,5,3) 0.374899
(1,4,4): (1,3,4) -0.502951 (1,4,3) -0.460536 (1,4,5) 0.847268 (1,5,4) 1.43508
(1,4,5): (1,3,5) -1.17275 (1,4,4) -0.847268 (1,4,6) 0.256282 (1,5,5) 4.07461
(1,4,6): (1,3,6) -1.36739 (1,4,5) -0.256282 (1,4,7) -0.256231 (1,5,6) 4.54104
(1,4,7): (1,3,7) -1.17278 (1,4,6) 0.256231 (1,4,8) -0.846985 (1,5,7) 4.07467
(1,4,8): (1,3,8) -0.503173 (1,4,7) 0.846985 (1,4,9) -0.458887 (1,5,8) 1.43548
(1,4,9): (1,3,9) -0.153864 (1,4,8) 0.458887 (1,4,10) -0.148153 (1,5,9) 0.377421
(1,4,10): (1,3,10) -4.448089E-02 (1,4,9) 0.148153 (1,5,10) 9.627034E-02
(1,5,1): (1,4,1) -1.775337E-02 (1,5,2) 0.103072 (1,6,1) 1.243249E-02
(1,5,2): (1,4,2) -8.142898E-02 (1,5,1) -0.103072 (1,5,3) 0.450491 (1,6,2) 6.858184E-02
(1,5,3): (1,4,3) -0.374899 (1,5,2) -0.450491 (1,5,4) 1.52159 (1,6,3) 0.400211
(1,5,4): (1,4,4) -1.43508 (1,5,3) -1.52159 (1,5,5) 3.47274 (1,6,4) 2.17532
(1,5,5): (1,4,5) -4.07461 (1,5,4) -3.47274 (1,5,6) 0.707693 (1,6,5) 11.2255
(1,5,6): (1,4,6) -4.54104 (1,5,5) -0.707693 (1,5,7) -0.707580 (1,6,6) 10.7582
(1,5,7): (1,4,7) -4.07467 (1,5,6) 0.707580 (1,5,8) -3.47210 (1,6,7) 11.2255
(1,5,8): (1,4,8) -1.43548 (1,5,7) 3.47210 (1,5,9) -1.51778 (1,6,8) 2.17555
(1,5,9): (1,4,9) -0.377421 (1,5,8) 1.51778 (1,5,10) -0.429447 (1,6,9) 0.401804
(1,5,10): (1,4,10) -9.627034E-02 (1,5,9) 0.429447 (1,6,10) 7.920066E-02
(1,6,1): (1,5,1) -1.243249E-02 (1,6,2) 0.159272 (1,7,1) -3.128106E-02
(1,6,2): (1,5,2) -6.858184E-02 (1,6,1) -0.159272 (1,6,3) 0.783364 (1,7,2) -0.165571
(1,6,3): (1,5,3) -0.400211 (1,6,2) -0.783364 (1,6,4) 3.31522 (1,7,3) -0.903632
(1,6,4): (1,5,4) -2.17532 (1,6,3) -3.31522 (1,6,5) 12.6154 (1,7,4) -4.43891
(1,6,5): (1,5,5) -11.2255 (1,6,4) -12.6154 (1,6,6) 0.279073 (1,7,5) -19.9212
(1,6,6): (1,5,6) -10.7582 (1,6,5) -0.279073 (1,6,7) -0.278917 (1,7,6) -32.8151
(1,6,7): (1,5,7) -11.2255 (1,6,6) 0.278917 (1,6,8) -12.6145 (1,7,7) -19.9213
(1,6,8): (1,5,8) -2.17555 (1,6,7) 12.6145 (1,6,9) -3.30995 (1,7,8) -4.43953
(1,6,9): (1,5,9) -0.401804 (1,6,8) 3.30995 (1,6,10) -0.753160 (1,7,9) -0.907717
(1,6,10): (1,5,10) -7.920066E-02 (1,6,9) 0.753160 (1,7,10) -0.192244
(1,7,1): (1,6,1) 3.128106E-02 (1,7,2) 2.499112E-02 (1,8,1) -2.425701E-02
(1,7,2): (1,6,2) 0.165571 (1,7,1) -2.499112E-02 (1,7,3) 4.617247E-02 (1,8,2) -0.128330
(1,7,3): (1,6,3) 0.903632 (1,7,2) -4.617247E-02 (1,7,4) -0.184082 (1,8,3) -0.701808
(1,7,4): (1,6,4) 4.43891 (1,7,3) 0.184082 (1,7,5) -2.08254 (1,8,4) -3.45428
(1,7,5): (1,6,5) 19.9212 (1,7,4) 2.08254 (1,7,6) -10.6606 (1,8,5) -15.2300
(1,7,6): (1,6,6) 32.8151 (1,7,5) 10.6606 (1,7,7) 10.6607 (1,8,6) -61.5784
(1,7,7): (1,6,7) 19.9213 (1,7,6) -10.6607 (1,7,8) 2.08285 (1,8,7) -15.2301
(1,7,8): (1,6,8) 4.43953 (1,7,7) -2.08285 (1,7,9) 0.185735 (1,8,8) -3.45473
(1,7,9): (1,6,9) 0.907717 (1,7,8) -0.185735 (1,7,10) -3.876930E-02 (1,8,9) -0.704948
(1,7,10): (1,6,10) 0.192244 (1,7,9) 3.876930E-02 (1,8,10) -0.148983
(1,8,1): (1,7,1) 2.425701E-02 (1,8,2) -7.903670E-02 (1,9,1) 2.202029E-02
(1,8,2): (1,7,2) 0.128330 (1,8,1) 7.903670E-02 (1,8,3) -0.526328 (1,9,2) 0.118394
(1,8,3): (1,7,3) 0.701808 (1,8,2) 0.526328 (1,8,4) -2.92229 (1,9,3) 0.657240
(1,8,4): (1,7,4) 3.45428 (1,8,3) 2.92229 (1,8,5) -13.6919 (1,9,4) 3.28266
(1,8,5): (1,7,5) 15.2300 (1,8,4) 13.6919 (1,8,6) -54.4267 (1,9,5) 14.6735
(1,8,6): (1,7,6) 61.5784 (1,8,5) 54.4267 (1,8,7) 54.4267 (1,9,6) 60.6441
(1,8,7): (1,7,7) 15.2301 (1,8,6) -54.4267 (1,8,8) 13.6919 (1,9,7) 14.6735
(1,8,8): (1,7,8) 3.45473 (1,8,7) -13.6919 (1,8,9) 2.92123 (1,9,8) 3.28306
(1,8,9): (1,7,9) 0.704948 (1,8,8) -2.92123 (1,8,10) 0.516169 (1,9,9) 0.660053
(1,8,10): (1,7,10) 0.148983 (1,8,9) -0.516169 (1,9,10) 0.137183
(1,9,1): (1,8,1) -2.202029E-02 (1,9,2) 1.730194E-02 (1,10,1) 2.954740E-02
(1,9,2): (1,8,2) -0.118394 (1,9,1) -1.730194E-02 (1,9,3) 1.181790E-02 (1,10,2) 0.156574
(1,9,3): (1,8,3) -0.657240 (1,9,2) -1.181790E-02 (1,9,4) -0.306116 (1,10,3) 0.852877
(1,9,4): (1,8,4) -3.28266 (1,9,3) 0.306116 (1,9,5) -2.40485 (1,10,4) 4.14719
(1,9,5): (1,8,5) -14.6735 (1,9,4) 2.40485 (1,9,6) -10.7056 (1,10,5) 17.9396
(1,9,6): (1,8,6) -60.6441 (1,9,5) 10.7056 (1,9,7) 10.7057 (1,10,6) 30.4188
(1,9,7): (1,8,7) -14.6735 (1,9,6) -10.7057 (1,9,8) 2.40513 (1,10,7) 17.9397
(1,9,8): (1,8,8) -3.28306 (1,9,7) -2.40513 (1,9,9) 0.307499 (1,10,8) 4.14776
(1,9,9): (1,8,9) -0.660053 (1,9,8) -0.307499 (1,9,10) -5.953130E-03 (1,10,9) 0.856723
(1,9,10): (1,8,10) -0.137183 (1,9,9) 5.953130E-03 (1,10,10) 0.181775
(1,10,1): (1,9,1) -2.954740E-02 (1,10,2) 0.144313 (1,11,1) -1.102895E-02
(1,10,2): (1,9,2) -0.156574 (1,10,1) -0.144313 (1,10,3) 0.707125 (1,11,2) -6.094019E-02
(1,10,3): (1,9,3) -0.852877 (1,10,2) -0.707125 (1,10,4) 2.95283 (1,11,3) -0.355292
(1,10,4): (1,9,4) -4.14719 (1,10,3) -2.95283 (1,10,5) 10.6860 (1,11,4) -1.90847
(1,10,5): (1,9,5) -17.9396 (1,10,4) -10.6860 (1,10,6) 2.412769E-02 (1,11,5) -9.40621
(1,10,6): (1,9,6) -30.4188 (1,10,5) -2.412769E-02 (1,10,7) -2.398956E-02 (1,11,6) -8.77695
(1,10,7): (1,9,7) -17.9397 (1,10,6) 2.398956E-02 (1,10,8) -10.6852 (1,11,7) -9.40625
(1,10,8): (1,9,8) -4.14776 (1,10,7) 10.6852 (1,10,9) -2.94806 (1,11,8) -1.90868
(1,10,9): (1,9,9) -0.856723 (1,10,8) 2.94806 (1,10,10) -0.679729 (1,11,9) -0.356701
(1,10,10): (1,9,10) -0.181775 (1,10,9) 0.679729 (1,11,10) -7.036094E-02
(1,11,1): (1,10,1) 1.102895E-02 (1,11,2) 9.436010E-02 (1,12,1) -1.623099E-02
(1,11,2): (1,10,2) 6.094019E-02 (1,11,1) -9.436010E-02 (1,11,3) 0.411757 (1,12,2) -7.439844E-02
(1,11,3): (1,10,3) 0.355292 (1,11,2) -0.411757 (1,11,4) 1.38468 (1,12,3) -0.342052
(1,11,4): (1,10,4) 1.90847 (1,11,3) -1.38468 (1,11,5) 3.11506 (1,12,4) -1.30413
(1,11,5): (1,10,5) 9.40621 (1,11,4) -3.11506 (1,11,6) 0.610278 (1,12,5) -3.65853
(1,11,6): (1,10,6) 8.77695 (1,11,5) -0.610278 (1,11,7) -0.610176 (1,12,6) -4.05087
(1,11,7): (1,10,7) 9.40625 (1,11,6) 0.610176 (1,11,8) -3.11448 (1,12,7) -3.65858
(1,11,8): (1,10,8) 1.90868 (1,11,7) 3.11448 (1,11,9) -1.38119 (1,12,8) -1.30449
(1,11,9): (1,10,9) 0.356701 (1,11,8) 1.38119 (1,11,10) -0.392483 (1,12,9) -0.344356
(1,11,10): (1,10,10) 7.036094E-02 (1,11,9) 0.392483 (1,12,10) -8.796440E-02
(1,12,1): (1,11,1) 1.623099E-02 (1,12,2) 3.618107E-02 (1,13,1) -8.203996E-03
(1,12,2): (1,11,2) 7.439844E-02 (1,12,1) -3.618107E-02 (1,12,3) 0.143919 (1,13,2) -3.408960E-02
(1,12,3): (1,11,3) 0.342052 (1,12,2) -0.143919 (1,12,4) 0.421863 (1,13,3) -0.139932
(1,12,4): (1,11,4) 1.30413 (1,12,3) -0.421863 (1,12,5) 0.772105 (1,13,4) -0.460640
(1,12,5): (1,11,5) 3.65853 (1,12,4) -0.772105 (1,12,6) 0.229452 (1,13,5) -1.07000
(1,12,6): (1,11,6) 4.05087 (1,12,5) -0.229452 (1,12,7) -0.229405 (1,13,6) -1.24339
(1,12,7): (1,11,7) 3.65858 (1,12,6) 0.229405 (1,12,8) -0.771845 (1,13,7) -1.07003
(1,12,8): (1,11,8) 1.30449 (1,12,7) 0.771845 (1,12,9) -0.420347 (1,13,8) -0.460843
(1,12,9): (1,11,9) 0.344356 (1,12,8) 0.420347 (1,12,10) -0.135969 (1,13,9) -0.141161
(1,12,10): (1,11,10) 8.796440E-02 (1,12,9) 0.135969 (1,13,10) -4.084564E-02
(1,13,1): (1,12,1) 8.203996E-03 (1,13,2) 1.029493E-02 (1,14,1) -2.767930E-03
(1,13,2): (1,12,2) 3.408960E-02 (1,13,1) -1.029493E-02 (1,13,3) 3.807239E-02 (1,14,2) -1.066269E-02
(1,13,3): (1,12,3) 0.139932 (1,13,2) -3.807239E-02 (1,13,4) 0.101278 (1,14,3) -4.037555E-02
(1,13,4): (1,12,4) 0.460640 (1,13,3) -0.101278 (1,13,5) 0.164506 (1,14,4) -0.121025
(1,13,5): (1,12,5) 1.07000 (1,13,4) -0.164506 (1,13,6) 5.773395E-02 (1,14,5) -0.254701
(1,13,6): (1,12,6) 1.24339 (1,13,5) -5.773395E-02 (1,13,7) -5.771779E-02 (1,14,6) -0.300737
(1,13,7): (1,12,7) 1.07003 (1,13,6) 5.771779E-02 (1,13,8) -0.164419 (1,14,7) -0.254712
(1,13,8): (1,12,8) 0.460843 (1,13,7) 0.164419 (1,13,9) -0.100793 (1,14,8) -0.121100
(1,13,9): (1,12,9) 0.141161 (1,13,8) 0.100793 (1,13,10) -3.565890E-02 (1,14,9) -4.080886E-02
(1,13,10): (1,12,10) 4.084564E-02 (1,13,9) 3.565890E-02 (1,14,10) -1.291246E-02
(1,14,1): (1,13,1) 2.767930E-03 (1,14,2) 2.400198E-03 (1,15,1) -7.005852E-04
(1,14,2): (1,13,2) 1.066269E-02 (1,14,1) -2.400198E-03 (1,14,3) 8.360217E-03 (1,15,2) -2.542754E-03
(1,14,3): (1,13,3) 4.037555E-02 (1,14,2) -8.360217E-03 (1,14,4) 2.064451E-02 (1,15,3) -9.064127E-03
(1,14,4): (1,13,4) 0.121025 (1,14,3) -2.064451E-02 (1,14,5) 3.094955E-02 (1,15,4) -2.545611E-02
(1,14,5): (1,13,5) 0.254701 (1,14,4) -3.094955E-02 (1,14,6) 1.180812E-02 (1,15,5) -5.042776E-02
(1,14,6): (1,13,6) 0.300737 (1,14,5) -1.180812E-02 (1,14,7) -1.180357E-02 (1,15,6) -5.983877E-02
(1,14,7): (1,13,7) 0.254712 (1,14,6) 1.180357E-02 (1,14,8) -3.092604E-02 (1,15,7) -5.043102E-02
(1,14,8): (1,13,8) 0.121100 (1,14,7) 3.092604E-02 (1,14,9) -2.051856E-02 (1,15,8) -2.547650E-02
(1,14,9): (1,13,9) 4.080886E-02 (1,14,8) 2.051856E-02 (1,14,10) -7.763932E-03 (1,15,9) -9.177793E-03
(1,14,10): (1,13,10) 1.291246E-02 (1,14,9) 7.763932E-03 (1,15,10) -3.105867E-03
(1,15,1): (1,14,1) 7.005852E-04 (1,15,2) 5.580309E-04
(1,15,2): (1,14,2) 2.542754E-03 (1,15,1) -5.580309E-04 (1,15,3) 1.838890E-03
(1,15,3): (1,14,3) 9.064127E-03 (1,15,2) -1.838890E-03 (1,15,4) 4.253312E-03
(1,15,4): (1,14,4) 2.545611E-02 (1,15,3) -4.253312E-03 (1,15,5) 5.982757E-03
(1,15,5): (1,14,5) 5.042776E-02 (1,15,4) -5.982757E-03 (1,15,6) 2.401623E-03
(1,15,6): (1,14,6) 5.983877E-02 (1,15,5) -2.401623E-03 (1,15,7) -2.400331E-03
(1,15,7): (1,14,7) 5.043102E-02 (1,15,6) 2.400331E-03 (1,15,8) -5.976371E-03
(1,15,8): (1,14,8) 2.547650E-02 (1,15,7) 5.976371E-03 (1,15,9) -4.220670E-03
(1,15,9): (1,14,9) 9.177793E-03 (1,15,8) 4.220670E-03 (1,15,10) -1.692092E-03
(1,15,10): (1,14,10) 3.105867E-03 (1,15,9) 1.692092E-03

 WEL PACKAGE (WEL-1) FLOW RATES   PERIOD      2   STEP       20
 ----------------------------------------------------------------------------------------
   NUMBER   CELLID                    RATE       NAME                                    
 ----------------------------------------------------------------------------------------
     1      (1,8,6)              -242.78399      WEL                                     
 ----------------------------------------------------------------------------------------




 API PACKAGE (MAR) FLOW RATES   PERIOD      2   STEP       20
 -----------------------------------------------
   NUMBER   CELLID                    RATE      
 -----------------------------------------------
     1      (1,6,5)               46.666667     
     2      (1,6,6)               46.666667     
     3      (1,6,7)               46.666667     
     4      (1,10,5)              34.261330     
     5      (1,10,6)              34.261330     
     6      (1,10,7)              34.261330     
 -----------------------------------------------



1
  HEAD IN LAYER   1 AT END OF TIME STEP  20 IN STRESS PERIOD    2
  ---------------------------------------------------------------------------

            1           2           3           4           5           6           7           8           9          10
 ........................................................................................................................
   1   2.5646E-05  8.6162E-05  2.8567E-04  7.4747E-04  1.3979E-03  1.6602E-03  1.3980E-03  7.4830E-04  2.9004E-04  1.0644E-04
   2   1.0166E-04  3.6216E-04  1.2700E-03  3.5132E-03  6.8813E-03  8.1751E-03  6.8818E-03  3.5163E-03  1.2866E-03  4.4354E-04
   3   4.0231E-04  1.5208E-03  5.6581E-03  1.6665E-02  3.4561E-02  4.0905E-02  3.4563E-02  1.6677E-02  5.7218E-03  1.8465E-03
   4   1.2952E-03  5.2314E-03  2.0879E-02  6.6628E-02  0.1501      0.1753      0.1501      6.6661E-02  2.1076E-02  6.2918E-03
   5   3.0700E-03  1.3363E-02  5.8152E-02  0.2072      0.5368      0.6035      0.5368      0.2073      5.8598E-02  1.5904E-02
   6   4.3127E-03  2.0208E-02  9.7786E-02  0.4161       1.512       1.536       1.512      0.4162      9.8387E-02  2.3805E-02
   7   1.1859E-03  3.6841E-03  8.2975E-03 -1.0095E-02 -0.2186      -1.308     -0.2186     -1.0058E-02  8.4996E-03  4.6260E-03
   8  -1.2395E-03 -9.1441E-03 -6.1825E-02 -0.3559      -1.776      -8.393      -1.776     -0.3559     -6.1935E-02 -1.0265E-02
   9   9.6233E-04  2.6921E-03  3.8734E-03 -2.6726E-02 -0.2679      -1.368     -0.2679     -2.6694E-02  4.0433E-03  3.4482E-03
  10   3.9159E-03  1.8321E-02  8.8414E-02  0.3731       1.317       1.319       1.317      0.3732      8.8960E-02  2.1587E-02
  11   2.8134E-03  1.2238E-02  5.3196E-02  0.1891      0.4862      0.5440      0.4862      0.1892      5.3605E-02  1.4566E-02
  12   1.1908E-03  4.8072E-03  1.9172E-02  6.1102E-02  0.1373      0.1599      0.1373      6.1132E-02  1.9353E-02  5.7820E-03
  13   3.7050E-04  1.3998E-03  5.2051E-03  1.5317E-02  3.1716E-02  3.7468E-02  3.1718E-02  1.5328E-02  5.2638E-03  1.6998E-03
  14   9.3718E-05  3.3373E-04  1.1697E-03  3.2334E-03  6.3264E-03  7.5064E-03  6.3269E-03  3.2362E-03  1.1850E-03  4.0875E-04
  15   2.3660E-05  7.9463E-05  2.6335E-04  6.8865E-04  1.2868E-03  1.5270E-03  1.2870E-03  6.8942E-04  2.6738E-04  9.8174E-05

 HEAD WILL BE SAVED ON UNIT 1043 AT END OF TIME STEP   20, STRESS PERIOD    2


  VOLUME BUDGET FOR ENTIRE MODEL AT END OF TIME STEP   20, STRESS PERIOD   2
  ---------------------------------------------------------------------------------------------------

     CUMULATIVE VOLUME      L**3       RATES FOR THIS TIME STEP      L**3/T          PACKAGE NAME    
     ------------------                 ------------------------                     ----------------

           IN:                                      IN:
           ---                                      ---
              STO-SS =          12.7146                STO-SS =       4.0154E-02     STORAGE                          
              STO-SY =       33486.0947                STO-SY =          95.0921     STORAGE                          
                 WEL =           0.0000                   WEL =           0.0000     WEL-1                            
                 API =       53389.6801                   API =         242.7840     MAR                              
                 CHD =       2.8247E-08                   CHD =           0.0000     CHD_0                            

            TOTAL IN =       86888.4894              TOTAL IN =         337.9162

          OUT:                                     OUT:
          ----                                     ----
              STO-SS =          17.4966                STO-SS =       4.9266E-02     STORAGE                          
              STO-SY =       33481.3126                STO-SY =          95.0830     STORAGE                          
                 WEL =       53389.6801                   WEL =         242.7840     WEL-1                            
                 API =           0.0000                   API =           0.0000     MAR                              
                 CHD =       3.0388E-08                   CHD =           0.0000     CHD_0                            

           TOTAL OUT =       86888.4894             TOTAL OUT =         337.9162

            IN - OUT =       1.6055E-07              IN - OUT =       7.4848E-09

 PERCENT DISCREPANCY =           0.00     PERCENT DISCREPANCY =           0.00




         TIME SUMMARY AT END OF TIME STEP   20 IN STRESS PERIOD    2
                    SECONDS     MINUTES      HOURS       DAYS        YEARS
                    -----------------------------------------------------------
   TIME STEP LENGTH 8.64000E+05  14400.      240.00      10.000     2.73785E-02
 STRESS PERIOD TIME 1.72800E+07 2.88000E+05  4800.0      200.00     0.54757    
         TOTAL TIME 1.73664E+07 2.89440E+05  4824.0      201.00     0.55031    


end timestep


start timestep kper="2" kstp="21" mode="normal"

 UBDSV1 SAVING           STO-SS ON UNIT   1042 AT TIME STEP     21, STRESS PERIOD      2
 UBDSV1 SAVING           STO-SY ON UNIT   1042 AT TIME STEP     21, STRESS PERIOD      2
 UBDSV1 SAVING     FLOW-JA-FACE ON UNIT   1042 AT TIME STEP     21, STRESS PERIOD      2
 UBDSV06 SAVING       DATA-SPDIS IN MODEL GWF              PACKAGE NPF             CONNECTED TO MODEL GWF              PACKAGE NPF              ON UNIT   1042 AT TIME STEP     21, STRESS PERIOD      2
 UBDSV06 SAVING              WEL IN MODEL GWF              PACKAGE GWF             CONNECTED TO MODEL GWF              PACKAGE WEL-1            ON UNIT   1042 AT TIME STEP     21, STRESS PERIOD      2
 UBDSV06 SAVING              API IN MODEL GWF              PACKAGE GWF             CONNECTED TO MODEL GWF              PACKAGE MAR              ON UNIT   1042 AT TIME STEP     21, STRESS PERIOD      2
 UBDSV06 SAVING              CHD IN MODEL GWF              PACKAGE GWF             CONNECTED TO MODEL GWF              PACKAGE CHD_0            ON UNIT   1042 AT TIME STEP     21, STRESS PERIOD      2

    CALCULATED INTERCELL FLOW FOR PERIOD 2 STEP 21
(1,1,1): (1,1,2) 7.739284E-04 (1,2,1) 9.710716E-04
(1,1,2): (1,1,1) -7.739284E-04 (1,1,3) 2.485324E-03 (1,2,2) 3.410341E-03
(1,1,3): (1,1,2) -2.485324E-03 (1,1,4) 5.595907E-03 (1,2,3) 1.181837E-02
(1,1,4): (1,1,3) -5.595907E-03 (1,1,5) 7.702649E-03 (1,2,4) 3.238058E-02
(1,1,5): (1,1,4) -7.702649E-03 (1,1,6) 3.126090E-03 (1,2,5) 6.301755E-02
(1,1,6): (1,1,5) -3.126090E-03 (1,1,7) -3.124063E-03 (1,2,6) 7.474487E-02
(1,1,7): (1,1,6) 3.124063E-03 (1,1,8) -7.692951E-03 (1,2,7) 6.302245E-02
(1,1,8): (1,1,7) 7.692951E-03 (1,1,9) -5.547796E-03 (1,2,8) 3.241037E-02
(1,1,9): (1,1,8) 5.547796E-03 (1,1,10) -2.275405E-03 (1,2,9) 1.197955E-02
(1,1,10): (1,1,9) 2.275405E-03 (1,2,10) 4.185378E-03
(1,2,1): (1,1,1) -9.710716E-04 (1,2,2) 3.213193E-03 (1,3,1) 3.723307E-03
(1,2,2): (1,1,2) -3.410341E-03 (1,2,1) -3.213193E-03 (1,2,3) 1.089327E-02 (1,3,2) 1.386230E-02
(1,2,3): (1,1,3) -1.181837E-02 (1,2,2) -1.089327E-02 (1,2,4) 2.615684E-02 (1,3,3) 5.097910E-02
(1,2,4): (1,1,4) -3.238058E-02 (1,2,3) -2.615684E-02 (1,2,5) 3.833207E-02 (1,3,4) 0.148933
(1,2,5): (1,1,5) -6.301755E-02 (1,2,4) -3.833207E-02 (1,2,6) 1.484641E-02 (1,3,5) 0.307695
(1,2,6): (1,1,6) -7.474487E-02 (1,2,5) -1.484641E-02 (1,2,7) -1.483948E-02 (1,3,6) 0.363528
(1,2,7): (1,1,7) -6.302245E-02 (1,2,6) 1.483948E-02 (1,2,8) -3.829748E-02 (1,3,7) 0.307712
(1,2,8): (1,1,8) -3.241037E-02 (1,2,7) 3.829748E-02 (1,2,9) -2.597730E-02 (1,3,8) 0.149039
(1,2,9): (1,1,9) -1.197955E-02 (1,2,8) 2.597730E-02 (1,2,10) -1.006943E-02 (1,3,9) 5.157633E-02
(1,2,10): (1,1,10) -4.185378E-03 (1,2,9) 1.006943E-02 (1,3,10) 1.686788E-02
(1,3,1): (1,2,1) -3.723307E-03 (1,3,2) 1.335214E-02 (1,4,1) 1.067619E-02
(1,3,2): (1,2,2) -1.386230E-02 (1,3,1) -1.335214E-02 (1,3,3) 4.800897E-02 (1,4,2) 4.283691E-02
(1,3,3): (1,2,3) -5.097910E-02 (1,3,2) -4.800897E-02 (1,3,4) 0.124086 (1,4,3) 0.170679
(1,3,4): (1,2,4) -0.148933 (1,3,3) -0.124086 (1,3,5) 0.196920 (1,4,4) 0.547545
(1,3,5): (1,2,5) -0.307695 (1,3,4) -0.196920 (1,3,6) 7.051796E-02 (1,4,5) 1.24982
(1,3,6): (1,2,6) -0.363528 (1,3,5) -7.051796E-02 (1,3,7) -7.049398E-02 (1,4,6) 1.45553
(1,3,7): (1,2,7) -0.307712 (1,3,6) 7.049398E-02 (1,3,8) -0.196796 (1,4,7) 1.24986
(1,3,8): (1,2,8) -0.149039 (1,3,7) 0.196796 (1,3,9) -0.123415 (1,4,8) 0.547827
(1,3,9): (1,2,9) -5.157633E-02 (1,3,8) 0.123415 (1,3,10) -4.477552E-02 (1,4,9) 0.172321
(1,3,10): (1,2,10) -1.686788E-02 (1,3,9) 4.477552E-02 (1,4,10) 5.157144E-02
(1,4,1): (1,3,1) -1.067619E-02 (1,4,2) 4.551371E-02 (1,5,1) 2.040263E-02
(1,4,2): (1,3,2) -4.283691E-02 (1,4,1) -4.551371E-02 (1,4,3) 0.175857 (1,5,2) 9.026520E-02
(1,4,3): (1,3,3) -0.170679 (1,4,2) -0.175857 (1,4,4) 0.500780 (1,5,3) 0.403065
(1,4,4): (1,3,4) -0.547545 (1,4,3) -0.500780 (1,4,5) 0.896807 (1,5,4) 1.50210
(1,4,5): (1,3,5) -1.24982 (1,4,4) -0.896807 (1,4,6) 0.273927 (1,5,5) 4.17984
(1,4,6): (1,3,6) -1.45553 (1,4,5) -0.273927 (1,4,7) -0.273859 (1,5,6) 4.65046
(1,4,7): (1,3,7) -1.24986 (1,4,6) 0.273859 (1,4,8) -0.896444 (1,5,7) 4.17992
(1,4,8): (1,3,8) -0.547827 (1,4,7) 0.896444 (1,4,9) -0.498740 (1,5,8) 1.50260
(1,4,9): (1,3,9) -0.172321 (1,4,8) 0.498740 (1,4,10) -0.165517 (1,5,9) 0.406043
(1,4,10): (1,3,10) -5.157144E-02 (1,4,9) 0.165517 (1,5,10) 0.107213
(1,5,1): (1,4,1) -2.040263E-02 (1,5,2) 0.115394 (1,6,1) 1.322251E-02
(1,5,2): (1,4,2) -9.026520E-02 (1,5,1) -0.115394 (1,5,3) 0.488922 (1,6,2) 7.076744E-02
(1,5,3): (1,4,3) -0.403065 (1,5,2) -0.488922 (1,5,4) 1.60085 (1,6,3) 0.404353
(1,5,4): (1,4,4) -1.50210 (1,5,3) -1.60085 (1,5,5) 3.55992 (1,6,4) 2.16972
(1,5,5): (1,4,5) -4.17984 (1,5,4) -3.55992 (1,5,6) 0.729148 (1,6,5) 11.1603
(1,5,6): (1,4,6) -4.65046 (1,5,5) -0.729148 (1,5,7) -0.729001 (1,6,6) 10.6339
(1,5,7): (1,4,7) -4.17992 (1,5,6) 0.729001 (1,5,8) -3.55913 (1,6,7) 11.1603
(1,5,8): (1,4,8) -1.50260 (1,5,7) 3.55913 (1,5,9) -1.59627 (1,6,8) 2.16999
(1,5,9): (1,4,9) -0.406043 (1,5,8) 1.59627 (1,5,10) -0.464518 (1,6,9) 0.406090
(1,5,10): (1,4,10) -0.107213 (1,5,9) 0.464518 (1,6,10) 8.199947E-02
(1,6,1): (1,5,1) -1.322251E-02 (1,6,2) 0.172997 (1,7,1) -3.577593E-02
(1,6,2): (1,5,2) -7.076744E-02 (1,6,1) -0.172997 (1,6,3) 0.823875 (1,7,2) -0.182715
(1,6,3): (1,5,3) -0.404353 (1,6,2) -0.823875 (1,6,4) 3.38582 (1,7,3) -0.967026
(1,6,4): (1,5,4) -2.16972 (1,6,3) -3.38582 (1,6,5) 12.6487 (1,7,4) -4.62317
(1,6,5): (1,5,5) -11.1603 (1,6,4) -12.6487 (1,6,6) 0.245363 (1,7,5) -20.3203
(1,6,6): (1,5,6) -10.6339 (1,6,5) -0.245363 (1,6,7) -0.245167 (1,7,6) -33.3483
(1,6,7): (1,5,7) -11.1603 (1,6,6) 0.245167 (1,6,8) -12.6476 (1,7,7) -20.3205
(1,6,8): (1,5,8) -2.16999 (1,6,7) 12.6476 (1,6,9) -3.37965 (1,7,8) -4.62392
(1,6,9): (1,5,9) -0.406090 (1,6,8) 3.37965 (1,6,10) -0.789824 (1,7,9) -0.971829
(1,6,10): (1,5,10) -8.199947E-02 (1,6,9) 0.789824 (1,7,10) -0.213052
(1,7,1): (1,6,1) 3.577593E-02 (1,7,2) 2.607283E-02 (1,8,1) -2.770939E-02
(1,7,2): (1,6,2) 0.182715 (1,7,1) -2.607283E-02 (1,7,3) 4.066153E-02 (1,8,2) -0.141541
(1,7,3): (1,6,3) 0.967026 (1,7,2) -4.066153E-02 (1,7,4) -0.229610 (1,8,3) -0.751153
(1,7,4): (1,6,4) 4.62317 (1,7,3) 0.229610 (1,7,5) -2.21950 (1,8,4) -3.59807
(1,7,5): (1,6,5) 20.3203 (1,7,4) 2.21950 (1,7,6) -10.7757 (1,8,5) -15.4938
(1,7,6): (1,6,6) 33.3483 (1,7,5) 10.7757 (1,7,7) 10.7758 (1,8,6) -61.4046
(1,7,7): (1,6,7) 20.3205 (1,7,6) -10.7758 (1,7,8) 2.21989 (1,8,7) -15.4939
(1,7,8): (1,6,8) 4.62392 (1,7,7) -2.21989 (1,7,9) 0.231550 (1,8,8) -3.59862
(1,7,9): (1,6,9) 0.971829 (1,7,8) -0.231550 (1,7,10) -3.239629E-02 (1,8,9) -0.754838
(1,7,10): (1,6,10) 0.213052 (1,7,9) 3.239629E-02 (1,8,10) -0.165002
(1,8,1): (1,7,1) 2.770939E-02 (1,8,2) -8.770457E-02 (1,9,1) 2.506999E-02
(1,8,2): (1,7,2) 0.141541 (1,8,1) 8.770457E-02 (1,8,3) -0.567858 (1,9,2) 0.130190
(1,8,3): (1,7,3) 0.751153 (1,8,2) 0.567858 (1,8,4) -3.06166 (1,9,3) 0.701277
(1,8,4): (1,7,4) 3.59807 (1,8,3) 3.06166 (1,8,5) -13.9459 (1,9,4) 3.40640
(1,8,5): (1,7,5) 15.4938 (1,8,4) 13.9459 (1,8,6) -54.0265 (1,9,5) 14.8562
(1,8,6): (1,7,6) 61.4046 (1,8,5) 54.0265 (1,8,7) 54.0265 (1,9,6) 60.3375
(1,8,7): (1,7,7) 15.4939 (1,8,6) -54.0265 (1,8,8) 13.9458 (1,9,7) 14.8563
(1,8,8): (1,7,8) 3.59862 (1,8,7) -13.9458 (1,8,9) 3.06043 (1,9,8) 3.40688
(1,8,9): (1,7,9) 0.754838 (1,8,8) -3.06043 (1,8,10) 0.556287 (1,9,9) 0.704566
(1,8,10): (1,7,10) 0.165002 (1,8,9) -0.556287 (1,9,10) 0.151466
(1,9,1): (1,8,1) -2.506999E-02 (1,9,2) 1.737428E-02 (1,10,1) 3.378271E-02
(1,9,2): (1,8,2) -0.130190 (1,9,1) -1.737428E-02 (1,9,3) 2.471843E-03 (1,10,2) 0.172622
(1,9,3): (1,8,3) -0.701277 (1,9,2) -2.471843E-03 (1,9,4) -0.365656 (1,10,3) 0.909996
(1,9,4): (1,8,4) -3.40640 (1,9,3) 0.365656 (1,9,5) -2.59309 (1,10,4) 4.28290
(1,9,5): (1,8,5) -14.8562 (1,9,4) 2.59309 (1,9,6) -10.8259 (1,10,5) 17.9263
(1,9,6): (1,8,6) -60.3375 (1,9,5) 10.8259 (1,9,7) 10.8260 (1,10,6) 30.4591
(1,9,7): (1,8,7) -14.8563 (1,9,6) -10.8260 (1,9,8) 2.59342 (1,10,7) 17.9264
(1,9,8): (1,8,8) -3.40688 (1,9,7) -2.59342 (1,9,9) 0.367271 (1,10,8) 4.28359
(1,9,9): (1,8,9) -0.704566 (1,9,8) -0.367271 (1,9,10) 4.002078E-03 (1,10,9) 0.914517
(1,9,10): (1,8,10) -0.151466 (1,9,9) -4.002078E-03 (1,10,10) 0.201276
(1,10,1): (1,9,1) -3.378271E-02 (1,10,2) 0.156191 (1,11,1) -1.164343E-02
(1,10,2): (1,9,2) -0.172622 (1,10,1) -0.156191 (1,10,3) 0.738607 (1,11,2) -6.231796E-02
(1,10,3): (1,9,3) -0.909996 (1,10,2) -0.738607 (1,10,4) 2.96772 (1,11,3) -0.354197
(1,10,4): (1,9,4) -4.28290 (1,10,3) -2.96772 (1,10,5) 10.3276 (1,11,4) -1.85858
(1,10,5): (1,9,5) -17.9263 (1,10,4) -10.3276 (1,10,6) -5.117163E-02 (1,11,5) -8.96488
(1,10,6): (1,9,6) -30.4591 (1,10,5) 5.117163E-02 (1,10,7) 5.134523E-02 (1,11,6) -8.24661
(1,10,7): (1,9,7) -17.9264 (1,10,6) -5.134523E-02 (1,10,8) -10.3267 (1,11,7) -8.96492
(1,10,8): (1,9,8) -4.28359 (1,10,7) 10.3267 (1,10,9) -2.96214 (1,11,8) -1.85882
(1,10,9): (1,9,9) -0.914517 (1,10,8) 2.96214 (1,10,10) -0.707795 (1,11,9) -0.355723
(1,10,10): (1,9,10) -0.201276 (1,10,9) 0.707795 (1,11,10) -7.220822E-02
(1,11,1): (1,10,1) 1.164343E-02 (1,11,2) 0.105469 (1,12,1) -1.862571E-02
(1,11,2): (1,10,2) 6.231796E-02 (1,11,1) -0.105469 (1,11,3) 0.445629 (1,12,2) -8.230471E-02
(1,11,3): (1,10,3) 0.354197 (1,11,2) -0.445629 (1,11,4) 1.44795 (1,12,3) -0.366522
(1,11,4): (1,10,4) 1.85858 (1,11,3) -1.44795 (1,11,5) 3.14716 (1,12,4) -1.35604
(1,11,5): (1,10,5) 8.96488 (1,11,4) -3.14716 (1,11,6) 0.620591 (1,12,5) -3.70201
(1,11,6): (1,10,6) 8.24661 (1,11,5) -0.620591 (1,11,7) -0.620458 (1,12,6) -4.08979
(1,11,7): (1,10,7) 8.96492 (1,11,6) 0.620458 (1,11,8) -3.14644 (1,12,7) -3.70208
(1,11,8): (1,10,8) 1.85882 (1,11,7) 3.14644 (1,11,9) -1.44376 (1,12,8) -1.35648
(1,11,9): (1,10,9) 0.355723 (1,11,8) 1.44376 (1,11,10) -0.423302 (1,12,9) -0.369238
(1,11,10): (1,10,10) 7.220822E-02 (1,11,9) 0.423302 (1,12,10) -9.777241E-02
(1,12,1): (1,11,1) 1.862571E-02 (1,12,2) 4.177553E-02 (1,13,1) -9.800856E-03
(1,12,2): (1,11,2) 8.230471E-02 (1,12,1) -4.177553E-02 (1,12,3) 0.161190 (1,13,2) -3.929464E-02
(1,12,3): (1,11,3) 0.366522 (1,12,2) -0.161190 (1,12,4) 0.457561 (1,13,3) -0.156360
(1,12,4): (1,11,4) 1.35604 (1,12,3) -0.457561 (1,12,5) 0.812795 (1,13,4) -0.500226
(1,12,5): (1,11,5) 3.70201 (1,12,4) -0.812795 (1,12,6) 0.244230 (1,13,5) -1.13501
(1,12,6): (1,11,6) 4.08979 (1,12,5) -0.244230 (1,12,7) -0.244168 (1,13,6) -1.31730
(1,12,7): (1,11,7) 3.70208 (1,12,6) 0.244168 (1,12,8) -0.812462 (1,13,7) -1.13505
(1,12,8): (1,11,8) 1.35648 (1,12,7) 0.812462 (1,12,9) -0.455687 (1,13,8) -0.500483
(1,12,9): (1,11,9) 0.369238 (1,12,8) 0.455687 (1,12,10) -0.151692 (1,13,9) -0.157866
(1,12,10): (1,11,10) 9.777241E-02 (1,12,9) 0.151692 (1,13,10) -4.731145E-02
(1,13,1): (1,12,1) 9.800856E-03 (1,13,2) 1.228101E-02 (1,14,1) -3.425931E-03
(1,13,2): (1,12,2) 3.929464E-02 (1,13,1) -1.228101E-02 (1,13,3) 4.411909E-02 (1,14,2) -1.274786E-02
(1,13,3): (1,12,3) 0.156360 (1,13,2) -4.411909E-02 (1,13,4) 0.113839 (1,14,3) -4.684240E-02
(1,13,4): (1,12,4) 0.500226 (1,13,3) -0.113839 (1,13,5) 0.179987 (1,14,4) -0.136656
(1,13,5): (1,12,5) 1.13501 (1,13,4) -0.179987 (1,13,6) 6.380433E-02 (1,14,5) -0.281628
(1,13,6): (1,12,6) 1.31730 (1,13,5) -6.380433E-02 (1,13,7) -6.378229E-02 (1,14,6) -0.332040
(1,13,7): (1,12,7) 1.13505 (1,13,6) 6.378229E-02 (1,13,8) -0.179872 (1,14,7) -0.281644
(1,13,8): (1,12,8) 0.500483 (1,13,7) 0.179872 (1,13,9) -0.113222 (1,14,8) -0.136754
(1,13,9): (1,12,9) 0.157866 (1,13,8) 0.113222 (1,13,10) -4.114334E-02 (1,14,9) -4.739192E-02
(1,13,10): (1,12,10) 4.731145E-02 (1,13,9) 4.114334E-02 (1,14,10) -1.551300E-02
(1,14,1): (1,13,1) 3.425931E-03 (1,14,2) 2.959130E-03 (1,15,1) -8.946143E-04
(1,14,2): (1,13,2) 1.274786E-02 (1,14,1) -2.959130E-03 (1,14,3) 1.002547E-02 (1,15,2) -3.140358E-03
(1,14,3): (1,13,3) 4.684240E-02 (1,14,2) -1.002547E-02 (1,14,4) 2.404593E-02 (1,15,3) -1.087616E-02
(1,14,4): (1,13,4) 0.136656 (1,14,3) -2.404593E-02 (1,14,5) 3.516047E-02 (1,15,4) -2.977202E-02
(1,14,5): (1,13,5) 0.281628 (1,14,4) -3.516047E-02 (1,14,6) 1.352648E-02 (1,15,5) -5.785933E-02
(1,14,6): (1,13,6) 0.332040 (1,14,5) -1.352648E-02 (1,14,7) -1.352009E-02 (1,15,6) -6.853147E-02
(1,14,7): (1,13,7) 0.281644 (1,14,6) 1.352009E-02 (1,14,8) -3.512859E-02 (1,15,7) -5.786385E-02
(1,14,8): (1,13,8) 0.136754 (1,14,7) 3.512859E-02 (1,14,9) -2.388045E-02 (1,15,8) -2.979946E-02
(1,14,9): (1,13,9) 4.739192E-02 (1,14,8) 2.388045E-02 (1,14,10) -9.266403E-03 (1,15,9) -1.102467E-02
(1,14,10): (1,13,10) 1.551300E-02 (1,14,9) 9.266403E-03 (1,15,10) -3.854296E-03
(1,15,1): (1,14,1) 8.946143E-04 (1,15,2) 7.133908E-04
(1,15,2): (1,14,2) 3.140358E-03 (1,15,1) -7.133908E-04 (1,15,3) 2.289735E-03
(1,15,3): (1,14,3) 1.087616E-02 (1,15,2) -2.289735E-03 (1,15,4) 5.151147E-03
(1,15,4): (1,14,4) 2.977202E-02 (1,15,3) -5.151147E-03 (1,15,5) 7.079519E-03
(1,15,5): (1,14,5) 5.785933E-02 (1,15,4) -7.079519E-03 (1,15,6) 2.860200E-03
(1,15,6): (1,14,6) 6.853147E-02 (1,15,5) -2.860200E-03 (1,15,7) -2.858328E-03
(1,15,7): (1,14,7) 5.786385E-02 (1,15,6) 2.858328E-03 (1,15,8) -7.070571E-03
(1,15,8): (1,14,8) 2.979946E-02 (1,15,7) 7.070571E-03 (1,15,9) -5.106767E-03
(1,15,9): (1,14,9) 1.102467E-02 (1,15,8) 5.106767E-03 (1,15,10) -2.096156E-03
(1,15,10): (1,14,10) 3.854296E-03 (1,15,9) 2.096156E-03

 WEL PACKAGE (WEL-1) FLOW RATES   PERIOD      2   STEP       21
 ----------------------------------------------------------------------------------------
   NUMBER   CELLID                    RATE       NAME                                    
 ----------------------------------------------------------------------------------------
     1      (1,8,6)              -237.60455      WEL                                     
 ----------------------------------------------------------------------------------------




 API PACKAGE (MAR) FLOW RATES   PERIOD      2   STEP       21
 -----------------------------------------------
   NUMBER   CELLID                    RATE      
 -----------------------------------------------
     1      (1,6,5)               46.666667     
     2      (1,6,6)               46.666667     
     3      (1,6,7)               46.666667     
     4      (1,10,5)              32.534850     
     5      (1,10,6)              32.534850     
     6      (1,10,7)              32.534850     
 -----------------------------------------------



1
  HEAD IN LAYER   1 AT END OF TIME STEP  21 IN STRESS PERIOD    2
  ---------------------------------------------------------------------------

            1           2           3           4           5           6           7           8           9          10
 ........................................................................................................................
   1   3.4366E-05  1.1176E-04  3.6028E-04  9.1982E-04  1.6900E-03  2.0025E-03  1.6902E-03  9.2099E-04  3.6626E-04  1.3873E-04
   2   1.3147E-04  4.5278E-04  1.5419E-03  4.1565E-03  7.9867E-03  9.4699E-03  7.9874E-03  4.1607E-03  1.5640E-03  5.5725E-04
   3   5.0378E-04  1.8388E-03  6.6365E-03  1.9022E-02  3.8638E-02  4.5657E-02  3.8640E-02  1.9036E-02  6.7182E-03  2.2437E-03
   4   1.5712E-03  6.1198E-03  2.3664E-02  7.3377E-02  0.1616      0.1885      0.1616      7.3420E-02  2.3909E-02  7.3970E-03
   5   3.6108E-03  1.5133E-02  6.3715E-02  0.2203      0.5575      0.6262      0.5576      0.2204      6.4254E-02  1.8099E-02
   6   4.9324E-03  2.2194E-02  0.1037      0.4284       1.526       1.547       1.526      0.4285      0.1044      2.6277E-02
   7   1.3565E-03  3.9628E-03  8.0257E-03 -1.4917E-02 -0.2372      -1.341     -0.2372     -1.4871E-02  8.2650E-03  5.0280E-03
   8  -1.4140E-03 -1.0186E-02 -6.7029E-02 -0.3753      -1.824      -8.432      -1.824     -0.3753     -6.7156E-02 -1.1464E-02
   9   1.0927E-03  2.8296E-03  3.0767E-03 -3.3478E-02 -0.2937      -1.409     -0.2937     -3.3438E-02  3.2771E-03  3.6772E-03
  10   4.4695E-03  2.0057E-02  9.3236E-02  0.3792       1.294       1.289       1.294      0.3793      9.3878E-02  2.3757E-02
  11   3.3056E-03  1.3838E-02  5.8143E-02  0.2001      0.4998      0.5586      0.4998      0.2002      5.8637E-02  1.6553E-02
  12   1.4437E-03  5.6189E-03  2.1703E-02  6.7154E-02  0.1473      0.1713      0.1473      6.7193E-02  2.1928E-02  6.7922E-03
  13   4.6373E-04  1.6916E-03  6.1008E-03  1.7465E-02  3.5400E-02  4.1754E-02  3.5402E-02  1.7479E-02  6.1761E-03  2.0643E-03
  14   1.2116E-04  4.1706E-04  1.4195E-03  3.8231E-03  7.3366E-03  8.6881E-03  7.3372E-03  3.8270E-03  1.4398E-03  5.1332E-04
  15   3.1696E-05  1.0303E-04  3.3200E-04  8.4707E-04  1.5549E-03  1.8409E-03  1.5551E-03  8.4815E-04  3.3752E-04  1.2791E-04

 HEAD WILL BE SAVED ON UNIT 1043 AT END OF TIME STEP   21, STRESS PERIOD    2


  VOLUME BUDGET FOR ENTIRE MODEL AT END OF TIME STEP   21, STRESS PERIOD   2
  ---------------------------------------------------------------------------------------------------

     CUMULATIVE VOLUME      L**3       RATES FOR THIS TIME STEP      L**3/T          PACKAGE NAME    
     ------------------                 ------------------------                     ----------------

           IN:                                      IN:
           ---                                      ---
              STO-SS =          13.1138                STO-SS =       3.9920E-02     STORAGE                          
              STO-SY =       34392.6479                STO-SY =          90.6553     STORAGE                          
                 WEL =           0.0000                   WEL =           0.0000     WEL-1                            
                 API =       55765.7256                   API =         237.6045     MAR                              
                 CHD =       2.8247E-08                   CHD =           0.0000     CHD_0                            

            TOTAL IN =       90171.4873              TOTAL IN =         328.2998

          OUT:                                     OUT:
          ----                                     ----
              STO-SS =          17.9658                STO-SS =       4.6921E-02     STORAGE                          
              STO-SY =       34387.7958                STO-SY =          90.6483     STORAGE                          
                 WEL =       55765.7256                   WEL =         237.6045     WEL-1                            
                 API =           0.0000                   API =           0.0000     MAR                              
                 CHD =       3.0388E-08                   CHD =           0.0000     CHD_0                            

           TOTAL OUT =       90171.4873             TOTAL OUT =         328.2998

            IN - OUT =       2.2873E-07              IN - OUT =       6.8164E-09

 PERCENT DISCREPANCY =           0.00     PERCENT DISCREPANCY =           0.00




         TIME SUMMARY AT END OF TIME STEP   21 IN STRESS PERIOD    2
                    SECONDS     MINUTES      HOURS       DAYS        YEARS
                    -----------------------------------------------------------
   TIME STEP LENGTH 8.64000E+05  14400.      240.00      10.000     2.73785E-02
 STRESS PERIOD TIME 1.81440E+07 3.02400E+05  5040.0      210.00     0.57495    
         TOTAL TIME 1.82304E+07 3.03840E+05  5064.0      211.00     0.57769    


end timestep


start timestep kper="2" kstp="22" mode="normal"

 UBDSV1 SAVING           STO-SS ON UNIT   1042 AT TIME STEP     22, STRESS PERIOD      2
 UBDSV1 SAVING           STO-SY ON UNIT   1042 AT TIME STEP     22, STRESS PERIOD      2
 UBDSV1 SAVING     FLOW-JA-FACE ON UNIT   1042 AT TIME STEP     22, STRESS PERIOD      2
 UBDSV06 SAVING       DATA-SPDIS IN MODEL GWF              PACKAGE NPF             CONNECTED TO MODEL GWF              PACKAGE NPF              ON UNIT   1042 AT TIME STEP     22, STRESS PERIOD      2
 UBDSV06 SAVING              WEL IN MODEL GWF              PACKAGE GWF             CONNECTED TO MODEL GWF              PACKAGE WEL-1            ON UNIT   1042 AT TIME STEP     22, STRESS PERIOD      2
 UBDSV06 SAVING              API IN MODEL GWF              PACKAGE GWF             CONNECTED TO MODEL GWF              PACKAGE MAR              ON UNIT   1042 AT TIME STEP     22, STRESS PERIOD      2
 UBDSV06 SAVING              CHD IN MODEL GWF              PACKAGE GWF             CONNECTED TO MODEL GWF              PACKAGE CHD_0            ON UNIT   1042 AT TIME STEP     22, STRESS PERIOD      2

    CALCULATED INTERCELL FLOW FOR PERIOD 2 STEP 22
(1,1,1): (1,1,2) 9.759319E-04 (1,2,1) 1.223100E-03
(1,1,2): (1,1,1) -9.759319E-04 (1,1,3) 3.056714E-03 (1,2,2) 4.160238E-03
(1,1,3): (1,1,2) -3.056714E-03 (1,1,4) 6.703875E-03 (1,2,3) 1.402643E-02
(1,1,4): (1,1,3) -6.703875E-03 (1,1,5) 9.029517E-03 (1,2,4) 3.751371E-02
(1,1,5): (1,1,4) -9.029517E-03 (1,1,6) 3.684377E-03 (1,2,5) 7.172468E-02
(1,1,6): (1,1,5) -3.684377E-03 (1,1,7) -3.681492E-03 (1,2,6) 8.491164E-02
(1,1,7): (1,1,6) 3.681492E-03 (1,1,8) -9.016153E-03 (1,2,7) 7.173136E-02
(1,1,8): (1,1,7) 9.016153E-03 (1,1,9) -6.639502E-03 (1,2,8) 3.755318E-02
(1,1,9): (1,1,8) 6.639502E-03 (1,1,10) -2.783991E-03 (1,2,9) 1.423393E-02
(1,1,10): (1,1,9) 2.783991E-03 (1,2,10) 5.129510E-03
(1,2,1): (1,1,1) -1.223100E-03 (1,2,2) 3.913062E-03 (1,3,1) 4.552012E-03
(1,2,2): (1,1,2) -4.160238E-03 (1,2,1) -3.913062E-03 (1,2,3) 1.292280E-02 (1,3,2) 1.639540E-02
(1,2,3): (1,1,3) -1.402643E-02 (1,2,2) -1.292280E-02 (1,2,4) 3.018943E-02 (1,3,3) 5.860133E-02
(1,2,4): (1,1,4) -3.751371E-02 (1,2,3) -3.018943E-02 (1,2,5) 4.323076E-02 (1,3,4) 0.166930
(1,2,5): (1,1,5) -7.172468E-02 (1,2,4) -4.323076E-02 (1,2,6) 1.686240E-02 (1,3,5) 0.338391
(1,2,6): (1,1,6) -8.491164E-02 (1,2,5) -1.686240E-02 (1,2,7) -1.685283E-02 (1,3,6) 0.399180
(1,2,7): (1,1,7) -7.173136E-02 (1,2,6) 1.685283E-02 (1,2,8) -4.318459E-02 (1,3,7) 0.338414
(1,2,8): (1,1,8) -3.755318E-02 (1,2,7) 4.318459E-02 (1,2,9) -2.995699E-02 (1,3,8) 0.167067
(1,2,9): (1,1,9) -1.423393E-02 (1,2,8) 2.995699E-02 (1,2,10) -1.188820E-02 (1,3,9) 5.934859E-02
(1,2,10): (1,1,10) -5.129510E-03 (1,2,9) 1.188820E-02 (1,3,10) 2.004449E-02
(1,3,1): (1,2,1) -4.552012E-03 (1,3,2) 1.575637E-02 (1,4,1) 1.261810E-02
(1,3,2): (1,2,2) -1.639540E-02 (1,3,1) -1.575637E-02 (1,3,3) 5.512727E-02 (1,4,2) 4.893553E-02
(1,3,3): (1,2,3) -5.860133E-02 (1,3,2) -5.512727E-02 (1,3,4) 0.138487 (1,4,3) 0.189378
(1,3,4): (1,2,4) -0.166930 (1,3,3) -0.138487 (1,3,5) 0.214482 (1,4,4) 0.591993
(1,3,5): (1,2,5) -0.338391 (1,3,4) -0.214482 (1,3,6) 7.745809E-02 (1,4,5) 1.32474
(1,3,6): (1,2,6) -0.399180 (1,3,5) -7.745809E-02 (1,3,7) -7.742589E-02 (1,4,6) 1.54088
(1,3,7): (1,2,7) -0.338414 (1,3,6) 7.742589E-02 (1,3,8) -0.214321 (1,4,7) 1.32480
(1,3,8): (1,2,8) -0.167067 (1,3,7) 0.214321 (1,3,9) -0.137644 (1,4,8) 0.592345
(1,3,9): (1,2,9) -5.934859E-02 (1,3,8) 0.137644 (1,3,10) -5.118909E-02 (1,4,9) 0.191367
(1,3,10): (1,2,10) -2.004449E-02 (1,3,9) 5.118909E-02 (1,4,10) 5.919018E-02
(1,4,1): (1,3,1) -1.261810E-02 (1,4,2) 5.207494E-02 (1,5,1) 2.320917E-02
(1,4,2): (1,3,2) -4.893553E-02 (1,4,1) -5.207494E-02 (1,4,3) 0.195578 (1,5,2) 9.920776E-02
(1,4,3): (1,3,3) -0.189378 (1,4,2) -0.195578 (1,4,4) 0.540901 (1,5,3) 0.430371
(1,4,4): (1,3,4) -0.591993 (1,4,3) -0.540901 (1,4,5) 0.944560 (1,5,4) 1.56430
(1,4,5): (1,3,5) -1.32474 (1,4,4) -0.944560 (1,4,6) 0.291040 (1,5,5) 4.27362
(1,4,6): (1,3,6) -1.54088 (1,4,5) -0.291040 (1,4,7) -0.290951 (1,5,6) 4.74698
(1,4,7): (1,3,7) -1.32480 (1,4,6) 0.290951 (1,4,8) -0.944102 (1,5,7) 4.27372
(1,4,8): (1,3,8) -0.592345 (1,4,7) 0.944102 (1,4,9) -0.538410 (1,5,8) 1.56490
(1,4,9): (1,3,9) -0.191367 (1,4,8) 0.538410 (1,4,10) -0.183355 (1,5,9) 0.433847
(1,4,10): (1,3,10) -5.919018E-02 (1,4,9) 0.183355 (1,5,10) 0.118365
(1,5,1): (1,4,1) -2.320917E-02 (1,5,2) 0.128095 (1,6,1) 1.389084E-02
(1,5,2): (1,4,2) -9.920776E-02 (1,5,1) -0.128095 (1,5,3) 0.527057 (1,6,2) 7.232447E-02
(1,5,3): (1,4,3) -0.430371 (1,5,2) -0.527057 (1,5,4) 1.67604 (1,6,3) 0.405879
(1,5,4): (1,4,4) -1.56430 (1,5,3) -1.67604 (1,5,5) 3.63880 (1,6,4) 2.15708
(1,5,5): (1,4,5) -4.27362 (1,5,4) -3.63880 (1,5,6) 0.748710 (1,6,5) 11.0864
(1,5,6): (1,4,6) -4.74698 (1,5,5) -0.748710 (1,5,7) -0.748524 (1,6,6) 10.5071
(1,5,7): (1,4,7) -4.27372 (1,5,6) 0.748524 (1,5,8) -3.63782 (1,6,7) 11.0865
(1,5,8): (1,4,8) -1.56490 (1,5,7) 3.63782 (1,5,9) -1.67059 (1,6,8) 2.15738
(1,5,9): (1,4,9) -0.433847 (1,5,8) 1.67059 (1,5,10) -0.499039 (1,6,9) 0.407747
(1,5,10): (1,4,10) -0.118365 (1,5,9) 0.499039 (1,6,10) 8.406100E-02
(1,6,1): (1,5,1) -1.389084E-02 (1,6,2) 0.186595 (1,7,1) -4.057931E-02
(1,6,2): (1,5,2) -7.232447E-02 (1,6,1) -0.186595 (1,6,3) 0.862098 (1,7,2) -0.200302
(1,6,3): (1,5,3) -0.405879 (1,6,2) -0.862098 (1,6,4) 3.44782 (1,7,3) -1.02969
(1,6,4): (1,5,4) -2.15708 (1,6,3) -3.44782 (1,6,5) 12.6718 (1,7,4) -4.79882
(1,6,5): (1,5,5) -11.0864 (1,6,4) -12.6718 (1,6,6) 0.215434 (1,7,5) -20.6868
(1,6,6): (1,5,6) -10.5071 (1,6,5) -0.215434 (1,6,7) -0.215190 (1,7,6) -33.8136
(1,6,7): (1,5,7) -11.0865 (1,6,6) 0.215190 (1,6,8) -12.6705 (1,7,7) -20.6869
(1,6,8): (1,5,8) -2.15738 (1,6,7) 12.6705 (1,6,9) -3.44067 (1,7,8) -4.79972
(1,6,9): (1,5,9) -0.407747 (1,6,8) 3.44067 (1,6,10) -0.824041 (1,7,9) -1.03529
(1,6,10): (1,5,10) -8.406100E-02 (1,6,9) 0.824041 (1,7,10) -0.234524
(1,7,1): (1,6,1) 4.057931E-02 (1,7,2) 2.689438E-02 (1,8,1) -3.136329E-02
(1,7,2): (1,6,2) 0.200302 (1,7,1) -2.689438E-02 (1,7,3) 3.406329E-02 (1,8,2) -0.154942
(1,7,3): (1,6,3) 1.02969 (1,7,2) -3.406329E-02 (1,7,4) -0.275766 (1,8,3) -0.799234
(1,7,4): (1,6,4) 4.79882 (1,7,3) 0.275766 (1,7,5) -2.34524 (1,8,4) -3.73177
(1,7,5): (1,6,5) 20.6868 (1,7,4) 2.34524 (1,7,6) -10.8592 (1,8,5) -15.7186
(1,7,6): (1,6,6) 33.8136 (1,7,5) 10.8592 (1,7,7) 10.8593 (1,8,6) -61.1939
(1,7,7): (1,6,7) 20.6869 (1,7,6) -10.8593 (1,7,8) 2.34572 (1,8,7) -15.7187
(1,7,8): (1,6,8) 4.79972 (1,7,7) -2.34572 (1,7,9) 0.278017 (1,8,8) -3.73242
(1,7,9): (1,6,9) 1.03529 (1,7,8) -0.278017 (1,7,10) -2.492925E-02 (1,8,9) -0.803512
(1,7,10): (1,6,10) 0.234524 (1,7,9) 2.492925E-02 (1,8,10) -0.181350
(1,8,1): (1,7,1) 3.136329E-02 (1,8,2) -9.661971E-02 (1,9,1) 2.827350E-02
(1,8,2): (1,7,2) 0.154942 (1,8,1) 9.661971E-02 (1,8,3) -0.609024 (1,9,2) 0.142026
(1,8,3): (1,7,3) 0.799234 (1,8,2) 0.609024 (1,8,4) -3.19292 (1,9,3) 0.743330
(1,8,4): (1,7,4) 3.73177 (1,8,3) 3.19292 (1,8,5) -14.1600 (1,9,4) 3.51613
(1,8,5): (1,7,5) 15.7186 (1,8,4) 14.1600 (1,8,6) -53.6033 (1,9,5) 14.9855
(1,8,6): (1,7,6) 61.1939 (1,8,5) 53.6033 (1,8,7) 53.6033 (1,9,6) 59.9696
(1,8,7): (1,7,7) 15.7187 (1,8,6) -53.6033 (1,8,8) 14.1599 (1,9,7) 14.9856
(1,8,8): (1,7,8) 3.73242 (1,8,7) -14.1599 (1,8,9) 3.19151 (1,9,8) 3.51671
(1,8,9): (1,7,9) 0.803512 (1,8,8) -3.19151 (1,8,10) 0.595957 (1,9,9) 0.747133
(1,8,10): (1,7,10) 0.181350 (1,8,9) -0.595957 (1,9,10) 0.165891
(1,9,1): (1,8,1) -2.827350E-02 (1,9,2) 1.708453E-02 (1,10,1) 3.829375E-02
(1,9,2): (1,8,2) -0.142026 (1,9,1) -1.708453E-02 (1,9,3) -8.523195E-03 (1,10,2) 0.188939
(1,9,3): (1,8,3) -0.743330 (1,9,2) 8.523195E-03 (1,9,4) -0.428875 (1,10,3) 0.965040
(1,9,4): (1,8,4) -3.51613 (1,9,3) 0.428875 (1,9,5) -2.77900 (1,10,4) 4.40217
(1,9,5): (1,8,5) -14.9855 (1,9,4) 2.77900 (1,9,6) -10.9161 (1,10,5) 17.8850
(1,9,6): (1,8,6) -59.9696 (1,9,5) 10.9161 (1,9,7) 10.9162 (1,10,6) 30.4308
(1,9,7): (1,8,7) -14.9856 (1,9,6) -10.9162 (1,9,8) 2.77941 (1,10,7) 17.8851
(1,9,8): (1,8,8) -3.51671 (1,9,7) -2.77941 (1,9,9) 0.430739 (1,10,8) 4.40300
(1,9,9): (1,8,9) -0.747133 (1,9,8) -0.430739 (1,9,10) 1.558802E-02 (1,10,9) 0.970300
(1,9,10): (1,8,10) -0.165891 (1,9,9) -1.558802E-02 (1,10,10) 0.221239
(1,10,1): (1,9,1) -3.829375E-02 (1,10,2) 0.167698 (1,11,1) -1.211845E-02
(1,10,2): (1,9,2) -0.188939 (1,10,1) -0.167698 (1,10,3) 0.766067 (1,11,2) -6.293243E-02
(1,10,3): (1,9,3) -0.965040 (1,10,2) -0.766067 (1,10,4) 2.96462 (1,11,3) -0.349269
(1,10,4): (1,9,4) -4.40217 (1,10,3) -2.96462 (1,10,5) 9.96381 (1,11,4) -1.79445
(1,10,5): (1,9,5) -17.8850 (1,10,4) -9.96381 (1,10,6) -0.129268 (1,11,5) -8.52195
(1,10,6): (1,9,6) -30.4308 (1,10,5) 0.129268 (1,10,7) 0.129483 (1,11,6) -7.71704
(1,10,7): (1,9,7) -17.8851 (1,10,6) -0.129483 (1,10,8) -9.96265 (1,11,7) -8.52200
(1,10,8): (1,9,8) -4.40300 (1,10,7) 9.96265 (1,10,9) -2.95818 (1,11,8) -1.79471
(1,10,9): (1,9,9) -0.970300 (1,10,8) 2.95818 (1,10,10) -0.731727 (1,11,9) -0.350895
(1,10,10): (1,9,10) -0.221239 (1,10,9) 0.731727 (1,11,10) -7.316876E-02
(1,11,1): (1,10,1) 1.211845E-02 (1,11,2) 0.116831 (1,12,1) -2.115035E-02
(1,11,2): (1,10,2) 6.293243E-02 (1,11,1) -0.116831 (1,11,3) 0.478562 (1,12,2) -9.021990E-02
(1,11,3): (1,10,3) 0.349269 (1,11,2) -0.478562 (1,11,4) 1.50386 (1,12,3) -0.389583
(1,11,4): (1,10,4) 1.79445 (1,11,3) -1.50386 (1,11,5) 3.16165 (1,12,4) -1.39995
(1,11,5): (1,10,5) 8.52195 (1,11,4) -3.16165 (1,11,6) 0.626457 (1,12,5) -3.72323
(1,11,6): (1,10,6) 7.71704 (1,11,5) -0.626457 (1,11,7) -0.626289 (1,12,6) -4.10284
(1,11,7): (1,10,7) 8.52200 (1,11,6) 0.626289 (1,11,8) -3.16076 (1,12,7) -3.72331
(1,11,8): (1,10,8) 1.79471 (1,11,7) 3.16076 (1,11,9) -1.49889 (1,12,8) -1.40048
(1,11,9): (1,10,9) 0.350895 (1,11,8) 1.49889 (1,11,10) -0.452965 (1,12,9) -0.392749
(1,11,10): (1,10,10) 7.316876E-02 (1,11,9) 0.452965 (1,12,10) -0.107672
(1,12,1): (1,11,1) 2.115035E-02 (1,12,2) 4.774310E-02 (1,13,1) -1.157312E-02
(1,12,2): (1,11,2) 9.021990E-02 (1,12,1) -4.774310E-02 (1,12,3) 0.178937 (1,13,2) -4.483322E-02
(1,12,3): (1,11,3) 0.389583 (1,12,2) -0.178937 (1,12,4) 0.492495 (1,13,3) -0.173153
(1,12,4): (1,11,4) 1.39995 (1,12,3) -0.492495 (1,12,5) 0.849970 (1,13,4) -0.538978
(1,12,5): (1,11,5) 3.72323 (1,12,4) -0.849970 (1,12,6) 0.258005 (1,13,5) -1.19570
(1,12,6): (1,11,6) 4.10284 (1,12,5) -0.258005 (1,12,7) -0.257923 (1,13,6) -1.38582
(1,12,7): (1,11,7) 3.72331 (1,12,6) 0.257923 (1,12,8) -0.849550 (1,13,7) -1.19575
(1,12,8): (1,11,8) 1.40048 (1,12,7) 0.849550 (1,12,9) -0.490209 (1,13,8) -0.539300
(1,12,9): (1,11,9) 0.392749 (1,12,8) 0.490209 (1,12,10) -0.167719 (1,13,9) -0.174977
(1,12,10): (1,11,10) 0.107672 (1,12,9) 0.167719 (1,13,10) -5.423628E-02
(1,13,1): (1,12,1) 1.157312E-02 (1,13,2) 1.448203E-02 (1,14,1) -4.186010E-03
(1,13,2): (1,12,2) 4.483322E-02 (1,13,1) -1.448203E-02 (1,13,3) 5.060949E-02 (1,14,2) -1.506625E-02
(1,13,3): (1,12,3) 0.173153 (1,13,2) -5.060949E-02 (1,13,4) 0.126837 (1,14,3) -5.379124E-02
(1,13,4): (1,12,4) 0.538978 (1,13,3) -0.126837 (1,13,5) 0.195436 (1,14,4) -0.152927
(1,13,5): (1,12,5) 1.19570 (1,13,4) -0.195436 (1,13,6) 6.991350E-02 (1,14,5) -0.308943
(1,13,6): (1,12,6) 1.38582 (1,13,5) -6.991350E-02 (1,13,7) -6.988392E-02 (1,14,6) -0.363671
(1,13,7): (1,12,7) 1.19575 (1,13,6) 6.988392E-02 (1,13,8) -0.195288 (1,14,7) -0.308964
(1,13,8): (1,12,8) 0.539300 (1,13,7) 0.195288 (1,13,9) -0.126061 (1,14,8) -0.153053
(1,13,9): (1,12,9) 0.174977 (1,13,8) 0.126061 (1,13,10) -4.698722E-02 (1,14,9) -5.447841E-02
(1,13,10): (1,12,10) 5.423628E-02 (1,13,9) 4.698722E-02 (1,14,10) -1.842137E-02
(1,14,1): (1,13,1) 4.186010E-03 (1,14,2) 3.601853E-03 (1,15,1) -1.126305E-03
(1,14,2): (1,13,2) 1.506625E-02 (1,14,1) -3.601853E-03 (1,14,3) 1.188573E-02 (1,15,2) -3.828911E-03
(1,14,3): (1,13,3) 5.379124E-02 (1,14,2) -1.188573E-02 (1,14,4) 2.772733E-02 (1,15,3) -1.289983E-02
(1,14,4): (1,13,4) 0.152927 (1,14,3) -2.772733E-02 (1,14,5) 3.959519E-02 (1,15,4) -3.446109E-02
(1,14,5): (1,13,5) 0.308943 (1,14,4) -3.959519E-02 (1,14,6) 1.534478E-02 (1,15,5) -6.577199E-02
(1,14,6): (1,13,6) 0.363671 (1,14,5) -1.534478E-02 (1,14,7) -1.533597E-02 (1,15,6) -7.775545E-02
(1,14,7): (1,13,7) 0.308964 (1,14,6) 1.533597E-02 (1,14,8) -3.955265E-02 (1,15,7) -6.577814E-02
(1,14,8): (1,13,8) 0.153053 (1,14,7) 3.955265E-02 (1,14,9) -2.751318E-02 (1,15,8) -3.449744E-02
(1,14,9): (1,13,9) 5.447841E-02 (1,14,8) 2.751318E-02 (1,14,10) -1.093287E-02 (1,15,9) -1.309092E-02
(1,14,10): (1,13,10) 1.842137E-02 (1,14,9) 1.093287E-02 (1,15,10) -4.721365E-03
(1,15,1): (1,14,1) 1.126305E-03 (1,15,2) 8.992526E-04
(1,15,2): (1,14,2) 3.828911E-03 (1,15,1) -8.992526E-04 (1,15,3) 2.814906E-03
(1,15,3): (1,14,3) 1.289983E-02 (1,15,2) -2.814906E-03 (1,15,4) 6.167516E-03
(1,15,4): (1,14,4) 3.446109E-02 (1,15,3) -6.167516E-03 (1,15,5) 8.292465E-03
(1,15,5): (1,14,5) 6.577199E-02 (1,15,4) -8.292465E-03 (1,15,6) 3.368772E-03
(1,15,6): (1,14,6) 7.775545E-02 (1,15,5) -3.368772E-03 (1,15,7) -3.366110E-03
(1,15,7): (1,14,7) 6.577814E-02 (1,15,6) 3.366110E-03 (1,15,8) -8.280139E-03
(1,15,8): (1,14,8) 3.449744E-02 (1,15,7) 8.280139E-03 (1,15,9) -6.108154E-03
(1,15,9): (1,14,9) 1.309092E-02 (1,15,8) 6.108154E-03 (1,15,10) -2.563495E-03
(1,15,10): (1,14,10) 4.721365E-03 (1,15,9) 2.563495E-03

 WEL PACKAGE (WEL-1) FLOW RATES   PERIOD      2   STEP       22
 ----------------------------------------------------------------------------------------
   NUMBER   CELLID                    RATE       NAME                                    
 ----------------------------------------------------------------------------------------
     1      (1,8,6)              -233.79729      WEL                                     
 ----------------------------------------------------------------------------------------




 API PACKAGE (MAR) FLOW RATES   PERIOD      2   STEP       22
 -----------------------------------------------
   NUMBER   CELLID                    RATE      
 -----------------------------------------------
     1      (1,6,5)               46.666667     
     2      (1,6,6)               46.666667     
     3      (1,6,7)               46.666667     
     4      (1,10,5)              31.265762     
     5      (1,10,6)              31.265762     
     6      (1,10,7)              31.265762     
 -----------------------------------------------



1
  HEAD IN LAYER   1 AT END OF TIME STEP  22 IN STRESS PERIOD    2
  ---------------------------------------------------------------------------

            1           2           3           4           5           6           7           8           9          10
 ........................................................................................................................
   1   4.5356E-05  1.4295E-04  4.4861E-04  1.1189E-03  2.0217E-03  2.3900E-03  2.0220E-03  1.1205E-03  4.5667E-04  1.7828E-04
   2   1.6766E-04  5.5895E-04  1.8510E-03  4.8685E-03  9.1876E-03  1.0872E-02  9.1885E-03  4.8740E-03  1.8798E-03  6.9120E-04
   3   6.2284E-04  2.1981E-03  7.7066E-03  2.1526E-02  4.2882E-02  5.0589E-02  4.2885E-02  2.1545E-02  7.8100E-03  2.6951E-03
   4   1.8844E-03  7.0882E-03  2.6594E-02  8.0254E-02  0.1731      0.2016      0.1731      8.0307E-02  2.6895E-02  8.6090E-03
   5   4.2044E-03  1.6992E-02  6.9335E-02  0.2331      0.5771      0.6475      0.5772      0.2332      6.9979E-02  2.0421E-02
   6   5.5927E-03  2.4207E-02  0.1095      0.4397       1.538       1.557       1.538      0.4399      0.1103      2.8803E-02
   7   1.5370E-03  4.2253E-03  7.6290E-03 -1.9927E-02 -0.2549      -1.369     -0.2549     -1.9870E-02  7.9093E-03  5.4183E-03
   8  -1.5989E-03 -1.1262E-02 -7.2233E-02 -0.3938      -1.868      -8.459      -1.868     -0.3939     -7.2378E-02 -1.2707E-02
   9   1.2282E-03  2.9361E-03  2.0840E-03 -4.0794E-02 -0.3198      -1.448     -0.3198     -4.0746E-02  2.3177E-03  3.8759E-03
  10   5.0556E-03  2.1789E-02  9.7655E-02  0.3832       1.267       1.256       1.267      0.3833      9.8402E-02  2.5943E-02
  11   3.8444E-03  1.5509E-02  6.3066E-02  0.2104      0.5111      0.5704      0.5112      0.2105      6.3655E-02  1.8645E-02
  12   1.7301E-03  6.5013E-03  2.4352E-02  7.3243E-02  0.1569      0.1823      0.1569      7.3292E-02  2.4628E-02  7.8975E-03
  13   5.7302E-04  2.0209E-03  7.0783E-03  1.9737E-02  3.9204E-02  4.6164E-02  3.9207E-02  1.9755E-02  7.1735E-03  2.4781E-03
  14   1.5445E-04  5.1461E-04  1.7030E-03  4.4745E-03  8.4307E-03  9.9636E-03  8.4315E-03  4.4796E-03  1.7295E-03  6.3642E-04
  15   4.1819E-05  1.3174E-04  4.1322E-04  1.0299E-03  1.8590E-03  2.1958E-03  1.8593E-03  1.0314E-03  4.2066E-04  1.6432E-04

 HEAD WILL BE SAVED ON UNIT 1043 AT END OF TIME STEP   22, STRESS PERIOD    2


  VOLUME BUDGET FOR ENTIRE MODEL AT END OF TIME STEP   22, STRESS PERIOD   2
  ---------------------------------------------------------------------------------------------------

     CUMULATIVE VOLUME      L**3       RATES FOR THIS TIME STEP      L**3/T          PACKAGE NAME    
     ------------------                 ------------------------                     ----------------

           IN:                                      IN:
           ---                                      ---
              STO-SS =          13.5042                STO-SS =       3.9042E-02     STORAGE                          
              STO-SY =       35256.5293                STO-SY =          86.3881     STORAGE                          
                 WEL =           0.0000                   WEL =           0.0000     WEL-1                            
                 API =       58103.6985                   API =         233.7973     MAR                              
                 CHD =       2.8247E-08                   CHD =           0.0000     CHD_0                            

            TOTAL IN =       93373.7319              TOTAL IN =         320.2245

          OUT:                                     OUT:
          ----                                     ----
              STO-SS =          18.4125                STO-SS =       4.4668E-02     STORAGE                          
              STO-SY =       35251.6210                STO-SY =          86.3825     STORAGE                          
                 WEL =       58103.6985                   WEL =         233.7973     WEL-1                            
                 API =           0.0000                   API =           0.0000     MAR                              
                 CHD =       3.0388E-08                   CHD =           0.0000     CHD_0                            

           TOTAL OUT =       93373.7319             TOTAL OUT =         320.2245

            IN - OUT =       2.6694E-07              IN - OUT =       3.8223E-09

 PERCENT DISCREPANCY =           0.00     PERCENT DISCREPANCY =           0.00




         TIME SUMMARY AT END OF TIME STEP   22 IN STRESS PERIOD    2
                    SECONDS     MINUTES      HOURS       DAYS        YEARS
                    -----------------------------------------------------------
   TIME STEP LENGTH 8.64000E+05  14400.      240.00      10.000     2.73785E-02
 STRESS PERIOD TIME 1.90080E+07 3.16800E+05  5280.0      220.00     0.60233    
         TOTAL TIME 1.90944E+07 3.18240E+05  5304.0      221.00     0.60507    


end timestep


start timestep kper="2" kstp="23" mode="normal"

 UBDSV1 SAVING           STO-SS ON UNIT   1042 AT TIME STEP     23, STRESS PERIOD      2
 UBDSV1 SAVING           STO-SY ON UNIT   1042 AT TIME STEP     23, STRESS PERIOD      2
 UBDSV1 SAVING     FLOW-JA-FACE ON UNIT   1042 AT TIME STEP     23, STRESS PERIOD      2
 UBDSV06 SAVING       DATA-SPDIS IN MODEL GWF              PACKAGE NPF             CONNECTED TO MODEL GWF              PACKAGE NPF              ON UNIT   1042 AT TIME STEP     23, STRESS PERIOD      2
 UBDSV06 SAVING              WEL IN MODEL GWF              PACKAGE GWF             CONNECTED TO MODEL GWF              PACKAGE WEL-1            ON UNIT   1042 AT TIME STEP     23, STRESS PERIOD      2
 UBDSV06 SAVING              API IN MODEL GWF              PACKAGE GWF             CONNECTED TO MODEL GWF              PACKAGE MAR              ON UNIT   1042 AT TIME STEP     23, STRESS PERIOD      2
 UBDSV06 SAVING              CHD IN MODEL GWF              PACKAGE GWF             CONNECTED TO MODEL GWF              PACKAGE CHD_0            ON UNIT   1042 AT TIME STEP     23, STRESS PERIOD      2

    CALCULATED INTERCELL FLOW FOR PERIOD 2 STEP 23
(1,1,1): (1,1,2) 1.214888E-03 (1,2,1) 1.520662E-03
(1,1,2): (1,1,1) -1.214888E-03 (1,1,3) 3.715868E-03 (1,2,2) 5.015921E-03
(1,1,3): (1,1,2) -3.715868E-03 (1,1,4) 7.948270E-03 (1,2,3) 1.647284E-02
(1,1,4): (1,1,3) -7.948270E-03 (1,1,5) 1.048840E-02 (1,2,4) 4.305907E-02
(1,1,5): (1,1,4) -1.048840E-02 (1,1,6) 4.299193E-03 (1,2,5) 8.096697E-02
(1,1,6): (1,1,5) -4.299193E-03 (1,1,7) -4.295156E-03 (1,2,6) 9.566792E-02
(1,1,7): (1,1,6) 4.295156E-03 (1,1,8) -1.047028E-02 (1,2,7) 8.097592E-02
(1,1,8): (1,1,7) 1.047028E-02 (1,1,9) -7.863419E-03 (1,2,8) 4.311060E-02
(1,1,9): (1,1,8) 7.863419E-03 (1,1,10) -3.366471E-03 (1,2,9) 1.673623E-02
(1,1,10): (1,1,9) 3.366471E-03 (1,2,10) 6.212514E-03
(1,2,1): (1,1,1) -1.520662E-03 (1,2,2) 4.710136E-03 (1,3,1) 5.500064E-03
(1,2,2): (1,1,2) -5.015921E-03 (1,2,1) -4.710136E-03 (1,2,3) 1.517264E-02 (1,3,2) 1.919037E-02
(1,2,3): (1,1,3) -1.647284E-02 (1,2,2) -1.517264E-02 (1,2,4) 3.453224E-02 (1,3,3) 6.675053E-02
(1,2,4): (1,1,4) -4.305907E-02 (1,2,3) -3.453224E-02 (1,2,5) 4.838398E-02 (1,3,4) 0.185648
(1,2,5): (1,1,5) -8.096697E-02 (1,2,4) -4.838398E-02 (1,2,6) 1.898891E-02 (1,3,5) 0.369699
(1,2,6): (1,1,6) -9.566792E-02 (1,2,5) -1.898891E-02 (1,2,7) -1.897592E-02 (1,3,6) 0.435418
(1,2,7): (1,1,7) -8.097592E-02 (1,2,6) 1.897592E-02 (1,2,8) -4.832327E-02 (1,3,7) 0.369729
(1,2,8): (1,1,8) -4.311060E-02 (1,2,7) 4.832327E-02 (1,2,9) -3.423545E-02 (1,3,8) 0.185822
(1,2,9): (1,1,9) -1.673623E-02 (1,2,8) 3.423545E-02 (1,2,10) -1.388988E-02 (1,3,9) 6.767353E-02
(1,2,10): (1,1,10) -6.212514E-03 (1,2,9) 1.388988E-02 (1,3,10) 2.356911E-02
(1,3,1): (1,2,1) -5.500064E-03 (1,3,2) 1.840033E-02 (1,4,1) 1.475712E-02
(1,3,2): (1,2,2) -1.919037E-02 (1,3,1) -1.840033E-02 (1,3,3) 6.273089E-02 (1,4,2) 5.539643E-02
(1,3,3): (1,2,3) -6.675053E-02 (1,3,2) -6.273089E-02 (1,3,4) 0.153392 (1,4,3) 0.208512
(1,3,4): (1,2,4) -0.185648 (1,3,3) -0.153392 (1,3,5) 0.232185 (1,4,4) 0.636068
(1,3,5): (1,2,5) -0.369699 (1,3,4) -0.232185 (1,3,6) 8.448081E-02 (1,4,5) 1.39731
(1,3,6): (1,2,6) -0.435418 (1,3,5) -8.448081E-02 (1,3,7) -8.443821E-02 (1,4,6) 1.62321
(1,3,7): (1,2,7) -0.369729 (1,3,6) 8.443821E-02 (1,3,8) -0.231979 (1,4,7) 1.39738
(1,3,8): (1,2,8) -0.185822 (1,3,7) 0.231979 (1,3,9) -0.152345 (1,4,8) 0.636502
(1,3,9): (1,2,9) -6.767353E-02 (1,3,8) 0.152345 (1,3,10) -5.799005E-02 (1,4,9) 0.210893
(1,3,10): (1,2,10) -2.356911E-02 (1,3,9) 5.799005E-02 (1,4,10) 6.731021E-02
(1,4,1): (1,3,1) -1.475712E-02 (1,4,2) 5.904112E-02 (1,5,1) 2.615679E-02
(1,4,2): (1,3,2) -5.539643E-02 (1,4,1) -5.904112E-02 (1,4,3) 0.215858 (1,5,2) 0.108192
(1,4,3): (1,3,3) -0.208512 (1,4,2) -0.215858 (1,4,4) 0.580715 (1,5,3) 0.456677
(1,4,4): (1,3,4) -0.636068 (1,4,3) -0.580715 (1,4,5) 0.990466 (1,5,4) 1.62171
(1,4,5): (1,3,5) -1.39731 (1,4,4) -0.990466 (1,4,6) 0.307585 (1,5,5) 4.35679
(1,4,6): (1,3,6) -1.62321 (1,4,5) -0.307585 (1,4,7) -0.307470 (1,5,6) 4.83173
(1,4,7): (1,3,7) -1.39738 (1,4,6) 0.307470 (1,4,8) -0.989896 (1,5,7) 4.35691
(1,4,8): (1,3,8) -0.636502 (1,4,7) 0.989896 (1,4,9) -0.577708 (1,5,8) 1.62242
(1,4,9): (1,3,9) -0.210893 (1,4,8) 0.577708 (1,4,10) -0.201560 (1,5,9) 0.460691
(1,4,10): (1,3,10) -6.731021E-02 (1,4,9) 0.201560 (1,5,10) 0.129647
(1,5,1): (1,4,1) -2.615679E-02 (1,5,2) 0.141103 (1,6,1) 1.441831E-02
(1,5,2): (1,4,2) -0.108192 (1,5,1) -0.141103 (1,5,3) 0.564713 (1,6,2) 7.323432E-02
(1,5,3): (1,4,3) -0.456677 (1,5,2) -0.564713 (1,5,4) 1.74713 (1,6,3) 0.404937
(1,5,4): (1,4,4) -1.62171 (1,5,3) -1.74713 (1,5,5) 3.71010 (1,6,4) 2.13839
(1,5,5): (1,4,5) -4.35679 (1,5,4) -3.71010 (1,5,6) 0.766618 (1,6,5) 11.0063
(1,5,6): (1,4,6) -4.83173 (1,5,5) -0.766618 (1,5,7) -0.766383 (1,6,6) 10.3802
(1,5,7): (1,4,7) -4.35691 (1,5,6) 0.766383 (1,5,8) -3.70892 (1,6,7) 11.0064
(1,5,8): (1,4,8) -1.62242 (1,5,7) 3.70892 (1,5,9) -1.74074 (1,6,8) 2.13871
(1,5,9): (1,4,9) -0.460691 (1,5,8) 1.74074 (1,5,10) -0.532839 (1,6,9) 0.406918
(1,5,10): (1,4,10) -0.129647 (1,5,9) 0.532839 (1,6,10) 8.535255E-02
(1,6,1): (1,5,1) -1.441831E-02 (1,6,2) 0.199993 (1,7,1) -4.568159E-02
(1,6,2): (1,5,2) -7.323432E-02 (1,6,1) -0.199993 (1,6,3) 0.898012 (1,7,2) -0.218265
(1,6,3): (1,5,3) -0.404937 (1,6,2) -0.898012 (1,6,4) 3.50206 (1,7,3) -1.09145
(1,6,4): (1,5,4) -2.13839 (1,6,3) -3.50206 (1,6,5) 12.6869 (1,7,4) -4.96593
(1,6,5): (1,5,5) -11.0063 (1,6,4) -12.6869 (1,6,6) 0.189429 (1,7,5) -21.0226
(1,6,6): (1,5,6) -10.3802 (1,6,5) -0.189429 (1,6,7) -0.189129 (1,7,6) -34.2203
(1,6,7): (1,5,7) -11.0064 (1,6,6) 0.189129 (1,6,8) -12.6854 (1,7,7) -21.0228
(1,6,8): (1,5,8) -2.13871 (1,6,7) 12.6854 (1,6,9) -3.49385 (1,7,8) -4.96699
(1,6,9): (1,5,9) -0.406918 (1,6,8) 3.49385 (1,6,10) -0.855812 (1,7,9) -1.09791
(1,6,10): (1,5,10) -8.535255E-02 (1,6,9) 0.855812 (1,7,10) -0.256581
(1,7,1): (1,6,1) 4.568159E-02 (1,7,2) 2.744052E-02 (1,8,1) -3.520502E-02
(1,7,2): (1,6,2) 0.218265 (1,7,1) -2.744052E-02 (1,7,3) 2.647156E-02 (1,8,2) -0.168469
(1,7,3): (1,6,3) 1.09145 (1,7,2) -2.647156E-02 (1,7,4) -0.321994 (1,8,3) -0.845927
(1,7,4): (1,6,4) 4.96593 (1,7,3) 0.321994 (1,7,5) -2.45963 (1,8,4) -3.85589
(1,7,5): (1,6,5) 21.0226 (1,7,4) 2.45963 (1,7,6) -10.9173 (1,8,5) -15.9114
(1,7,6): (1,6,6) 34.2203 (1,7,5) 10.9173 (1,7,7) 10.9174 (1,8,6) -60.9787
(1,7,7): (1,6,7) 21.0228 (1,7,6) -10.9174 (1,7,8) 2.46020 (1,8,7) -15.9115
(1,7,8): (1,6,8) 4.96699 (1,7,7) -2.46020 (1,7,9) 0.324580 (1,8,8) -3.85667
(1,7,9): (1,6,9) 1.09791 (1,7,8) -0.324580 (1,7,10) -1.647139E-02 (1,8,9) -0.850846
(1,7,10): (1,6,10) 0.256581 (1,7,9) 1.647139E-02 (1,8,10) -0.197950
(1,8,1): (1,7,1) 3.520502E-02 (1,8,2) -0.105748 (1,9,1) 3.161159E-02
(1,8,2): (1,7,2) 0.168469 (1,8,1) 0.105748 (1,8,3) -0.649675 (1,9,2) 0.153809
(1,8,3): (1,7,3) 0.845927 (1,8,2) 0.649675 (1,8,4) -3.31615 (1,9,3) 0.783124
(1,8,4): (1,7,4) 3.85589 (1,8,3) 3.31615 (1,8,5) -14.3403 (1,9,4) 3.61214
(1,8,5): (1,7,5) 15.9114 (1,8,4) 14.3403 (1,8,6) -53.1870 (1,9,5) 15.0705
(1,8,6): (1,7,6) 60.9787 (1,8,5) 53.1870 (1,8,7) 53.1870 (1,9,6) 59.5762
(1,8,7): (1,7,7) 15.9115 (1,8,6) -53.1870 (1,8,8) 14.3402 (1,9,7) 15.0706
(1,8,8): (1,7,8) 3.85667 (1,8,7) -14.3402 (1,8,9) 3.31455 (1,9,8) 3.61282
(1,8,9): (1,7,9) 0.850846 (1,8,8) -3.31455 (1,8,10) 0.635029 (1,9,9) 0.787480
(1,8,10): (1,7,10) 0.197950 (1,8,9) -0.635029 (1,9,10) 0.180348
(1,9,1): (1,8,1) -3.161159E-02 (1,9,2) 1.639390E-02 (1,10,1) 4.306488E-02
(1,9,2): (1,8,2) -0.153809 (1,9,1) -1.639390E-02 (1,9,3) -2.119366E-02 (1,10,2) 0.205426
(1,9,3): (1,8,3) -0.783124 (1,9,2) 2.119366E-02 (1,9,4) -0.495322 (1,10,3) 1.01782
(1,9,4): (1,8,4) -3.61214 (1,9,3) 0.495322 (1,9,5) -2.96038 (1,10,4) 4.50724
(1,9,5): (1,8,5) -15.0705 (1,9,4) 2.96038 (1,9,6) -10.9825 (1,10,5) 17.8317
(1,9,6): (1,8,6) -59.5762 (1,9,5) 10.9825 (1,9,7) 10.9826 (1,10,6) 30.3609
(1,9,7): (1,8,7) -15.0706 (1,9,6) -10.9826 (1,9,8) 2.96086 (1,10,7) 17.8319
(1,9,8): (1,8,8) -3.61282 (1,9,7) -2.96086 (1,9,9) 0.497452 (1,10,8) 4.50823
(1,9,9): (1,8,9) -0.787480 (1,9,8) -0.497452 (1,9,10) 2.881751E-02 (1,10,9) 1.02389
(1,9,10): (1,8,10) -0.180348 (1,9,9) -2.881751E-02 (1,10,10) 0.241550
(1,10,1): (1,9,1) -4.306488E-02 (1,10,2) 0.178712 (1,11,1) -1.243052E-02
(1,10,2): (1,9,2) -0.205426 (1,10,1) -0.178712 (1,10,3) 0.789393 (1,11,2) -6.273939E-02
(1,10,3): (1,9,3) -1.01782 (1,10,2) -0.789393 (1,10,4) 2.94646 (1,11,3) -0.340666
(1,10,4): (1,9,4) -4.50724 (1,10,3) -2.94646 (1,10,5) 9.60965 (1,11,4) -1.71927
(1,10,5): (1,9,5) -17.8317 (1,10,4) -9.60965 (1,10,6) -0.208034 (1,11,5) -8.09275
(1,10,6): (1,9,6) -30.3609 (1,10,5) 0.208034 (1,10,7) 0.208298 (1,11,6) -7.20546
(1,10,7): (1,9,7) -17.8319 (1,10,6) -0.208298 (1,10,8) -9.60828 (1,11,7) -8.09281
(1,10,8): (1,9,8) -4.50823 (1,10,7) 9.60828 (1,10,9) -2.93909 (1,11,8) -1.71955
(1,10,9): (1,9,9) -1.02389 (1,10,8) 2.93909 (1,10,10) -0.751445 (1,11,9) -0.342373
(1,10,10): (1,9,10) -0.241550 (1,10,9) 0.751445 (1,11,10) -7.318039E-02
(1,11,1): (1,10,1) 1.243052E-02 (1,11,2) 0.128345 (1,12,1) -2.378517E-02
(1,11,2): (1,10,2) 6.273939E-02 (1,11,1) -0.128345 (1,11,3) 0.510247 (1,12,2) -9.805681E-02
(1,11,3): (1,10,3) 0.340666 (1,11,2) -0.510247 (1,11,4) 1.55228 (1,12,3) -0.410982
(1,11,4): (1,10,4) 1.71927 (1,11,3) -1.55228 (1,11,5) 3.16135 (1,12,4) -1.43578
(1,11,5): (1,10,5) 8.09275 (1,11,4) -3.16135 (1,11,6) 0.628148 (1,12,5) -3.72510
(1,11,6): (1,10,6) 7.20546 (1,11,5) -0.628148 (1,11,7) -0.627936 (1,12,6) -4.09334
(1,11,7): (1,10,7) 8.09281 (1,11,6) 0.627936 (1,11,8) -3.16028 (1,12,7) -3.72520
(1,11,8): (1,10,8) 1.71955 (1,11,7) 3.16028 (1,11,9) -1.54645 (1,12,8) -1.43642
(1,11,9): (1,10,9) 0.342373 (1,11,8) 1.54645 (1,11,10) -0.481176 (1,12,9) -0.414631
(1,11,10): (1,10,10) 7.318039E-02 (1,11,9) 0.481176 (1,12,10) -0.117557
(1,12,1): (1,11,1) 2.378517E-02 (1,12,2) 5.405084E-02 (1,13,1) -1.352052E-02
(1,12,2): (1,11,2) 9.805681E-02 (1,12,1) -5.405084E-02 (1,12,3) 0.197016 (1,13,2) -5.067277E-02
(1,12,3): (1,11,3) 0.410982 (1,12,2) -0.197016 (1,12,4) 0.526351 (1,13,3) -0.190164
(1,12,4): (1,11,4) 1.43578 (1,12,3) -0.526351 (1,12,5) 0.883478 (1,13,4) -0.576528
(1,12,5): (1,11,5) 3.72510 (1,12,4) -0.883478 (1,12,6) 0.270651 (1,13,5) -1.25167
(1,12,6): (1,11,6) 4.09334 (1,12,5) -0.270651 (1,12,7) -0.270546 (1,13,6) -1.44851
(1,12,7): (1,11,7) 3.72520 (1,12,6) 0.270546 (1,12,8) -0.882955 (1,13,7) -1.25173
(1,12,8): (1,11,8) 1.43642 (1,12,7) 0.882955 (1,12,9) -0.523593 (1,13,8) -0.576925
(1,12,9): (1,11,9) 0.414631 (1,12,8) 0.523593 (1,12,10) -0.183907 (1,13,9) -0.192345
(1,12,10): (1,11,10) 0.117557 (1,12,9) 0.183907 (1,13,10) -6.158471E-02
(1,13,1): (1,12,1) 1.352052E-02 (1,13,2) 1.689734E-02 (1,14,1) -5.054467E-03
(1,13,2): (1,12,2) 5.067277E-02 (1,13,1) -1.689734E-02 (1,13,3) 5.751509E-02 (1,14,2) -1.761890E-02
(1,13,3): (1,12,3) 0.190164 (1,13,2) -5.751509E-02 (1,13,4) 0.140176 (1,14,3) -6.119152E-02
(1,13,4): (1,12,4) 0.576528 (1,13,3) -0.140176 (1,13,5) 0.210728 (1,14,4) -0.169722
(1,13,5): (1,12,5) 1.25167 (1,13,4) -0.210728 (1,13,6) 7.600504E-02 (1,14,5) -0.336427
(1,13,6): (1,12,6) 1.44851 (1,13,5) -7.600504E-02 (1,13,7) -7.596594E-02 (1,14,6) -0.395365
(1,13,7): (1,12,7) 1.25173 (1,13,6) 7.596594E-02 (1,13,8) -0.210539 (1,14,7) -0.336454
(1,13,8): (1,12,8) 0.576925 (1,13,7) 0.210539 (1,13,9) -0.139214 (1,14,8) -0.169882
(1,13,9): (1,12,9) 0.192345 (1,13,8) 0.139214 (1,13,10) -5.315739E-02 (1,14,9) -6.203978E-02
(1,13,10): (1,12,10) 6.158471E-02 (1,13,9) 5.315739E-02 (1,14,10) -2.164204E-02
(1,14,1): (1,13,1) 5.054467E-03 (1,14,2) 4.332997E-03 (1,15,1) -1.399639E-03
(1,14,2): (1,13,2) 1.761890E-02 (1,14,1) -4.332997E-03 (1,14,3) 1.394407E-02 (1,15,2) -4.613682E-03
(1,14,3): (1,13,3) 6.119152E-02 (1,14,2) -1.394407E-02 (1,14,4) 3.167813E-02 (1,15,3) -1.513772E-02
(1,14,4): (1,13,4) 0.169722 (1,14,3) -3.167813E-02 (1,14,5) 4.422989E-02 (1,15,4) -3.951049E-02
(1,14,5): (1,13,5) 0.336427 (1,14,4) -4.422989E-02 (1,14,6) 1.725249E-02 (1,15,5) -7.412797E-02
(1,14,6): (1,13,6) 0.395365 (1,14,5) -1.725249E-02 (1,14,7) -1.724053E-02 (1,15,6) -8.746214E-02
(1,14,7): (1,13,7) 0.336454 (1,14,6) 1.724053E-02 (1,14,8) -4.417397E-02 (1,15,7) -7.413621E-02
(1,14,8): (1,13,8) 0.169882 (1,14,7) 4.417397E-02 (1,14,9) -3.140482E-02 (1,15,8) -3.955791E-02
(1,14,9): (1,13,9) 6.203978E-02 (1,14,8) 3.140482E-02 (1,14,10) -1.276323E-02 (1,15,9) -1.538018E-02
(1,14,10): (1,13,10) 2.164204E-02 (1,14,9) 1.276323E-02 (1,15,10) -5.714879E-03
(1,15,1): (1,14,1) 1.399639E-03 (1,15,2) 1.118963E-03
(1,15,2): (1,14,2) 4.613682E-03 (1,15,1) -1.118963E-03 (1,15,3) 3.420158E-03
(1,15,3): (1,14,3) 1.513772E-02 (1,15,2) -3.420158E-03 (1,15,4) 7.307271E-03
(1,15,4): (1,14,4) 3.951049E-02 (1,15,3) -7.307271E-03 (1,15,5) 9.622723E-03
(1,15,5): (1,14,5) 7.412797E-02 (1,15,4) -9.622723E-03 (1,15,6) 3.927653E-03
(1,15,6): (1,14,6) 8.746214E-02 (1,15,5) -3.927653E-03 (1,15,7) -3.923930E-03
(1,15,7): (1,14,7) 7.413621E-02 (1,15,6) 3.923930E-03 (1,15,8) -9.606012E-03
(1,15,8): (1,14,8) 3.955791E-02 (1,15,7) 9.606012E-03 (1,15,9) -7.229051E-03
(1,15,9): (1,14,9) 1.538018E-02 (1,15,8) 7.229051E-03 (1,15,10) -3.098180E-03
(1,15,10): (1,14,10) 5.714879E-03 (1,15,9) 3.098180E-03

 WEL PACKAGE (WEL-1) FLOW RATES   PERIOD      2   STEP       23
 ----------------------------------------------------------------------------------------
   NUMBER   CELLID                    RATE       NAME                                    
 ----------------------------------------------------------------------------------------
     1      (1,8,6)              -230.90513      WEL                                     
 ----------------------------------------------------------------------------------------




 API PACKAGE (MAR) FLOW RATES   PERIOD      2   STEP       23
 -----------------------------------------------
   NUMBER   CELLID                    RATE      
 -----------------------------------------------
     1      (1,6,5)               46.666667     
     2      (1,6,6)               46.666667     
     3      (1,6,7)               46.666667     
     4      (1,10,5)              30.301711     
     5      (1,10,6)              30.301711     
     6      (1,10,7)              30.301711     
 -----------------------------------------------



1
  HEAD IN LAYER   1 AT END OF TIME STEP  23 IN STRESS PERIOD    2
  ---------------------------------------------------------------------------

            1           2           3           4           5           6           7           8           9          10
 ........................................................................................................................
   1   5.9027E-05  1.8051E-04  5.5208E-04  1.3468E-03  2.3954E-03  2.8252E-03  2.3958E-03  1.3490E-03  5.6278E-04  2.2615E-04
   2   2.1109E-04  6.8207E-04  2.1990E-03  5.6503E-03  1.0484E-02  1.2380E-02  1.0485E-02  5.6576E-03  2.2360E-03  8.4735E-04
   3   7.6105E-04  2.6006E-03  8.8681E-03  2.4170E-02  4.7280E-02  5.5681E-02  4.7284E-02  2.4195E-02  8.9973E-03  3.2035E-03
   4   2.2364E-03  8.1357E-03  2.9658E-02  8.7227E-02  0.1845      0.2146      0.1845      8.7294E-02  3.0024E-02  9.9279E-03
   5   4.8508E-03  1.8934E-02  7.4985E-02  0.2455      0.5957      0.6675      0.5957      0.2456      7.5746E-02  2.2863E-02
   6   6.2918E-03  2.6239E-02  0.1150      0.4501       1.549       1.565       1.549      0.4503      0.1160      3.1371E-02
   7   1.7265E-03  4.4693E-03  7.1146E-03 -2.5062E-02 -0.2716      -1.394     -0.2716     -2.4994E-02  7.4396E-03  5.7937E-03
   8  -1.7934E-03 -1.2370E-02 -7.7418E-02 -0.4116      -1.907      -8.479      -1.907     -0.4116     -7.7582E-02 -1.3990E-02
   9   1.3673E-03  3.0062E-03  8.8749E-04 -4.8640E-02 -0.3461      -1.484     -0.3461     -4.8582E-02  1.1571E-03  4.0377E-03
  10   5.6714E-03  2.3501E-02  0.1016      0.3854       1.240       1.222       1.240      0.3855      0.1025      2.8125E-02
  11   4.4290E-03  1.7241E-02  6.7922E-02  0.2198      0.5203      0.5797      0.5203      0.2199      6.8617E-02  2.0827E-02
  12   2.0516E-03  7.4526E-03  2.7101E-02  7.9322E-02  0.1662      0.1928      0.1662      7.9384E-02  2.7437E-02  9.0962E-03
  13   6.9978E-04  2.3891E-03  8.1359E-03  2.2123E-02  4.3105E-02  5.0667E-02  4.3109E-02  2.2145E-02  8.2547E-03  2.9434E-03
  14   1.9437E-04  6.2764E-04  2.0218E-03  5.1879E-03  9.6067E-03  1.1330E-02  9.6079E-03  5.1947E-03  2.0559E-03  7.7980E-04
  15   5.4406E-05  1.6630E-04  5.0830E-04  1.2389E-03  2.2010E-03  2.5937E-03  2.2014E-03  1.2410E-03  5.1816E-04  2.0836E-04

 HEAD WILL BE SAVED ON UNIT 1043 AT END OF TIME STEP   23, STRESS PERIOD    2


  VOLUME BUDGET FOR ENTIRE MODEL AT END OF TIME STEP   23, STRESS PERIOD   2
  ---------------------------------------------------------------------------------------------------

     CUMULATIVE VOLUME      L**3       RATES FOR THIS TIME STEP      L**3/T          PACKAGE NAME    
     ------------------                 ------------------------                     ----------------

           IN:                                      IN:
           ---                                      ---
              STO-SS =          13.8824                STO-SS =       3.7819E-02     STORAGE                          
              STO-SY =       36080.0439                STO-SY =          82.3515     STORAGE                          
                 WEL =           0.0000                   WEL =           0.0000     WEL-1                            
                 API =       60412.7498                   API =         230.9051     MAR                              
                 CHD =       2.8247E-08                   CHD =           0.0000     CHD_0                            

            TOTAL IN =       96506.6761              TOTAL IN =         313.2944

          OUT:                                     OUT:
          ----                                     ----
              STO-SS =          18.8379                STO-SS =       4.2539E-02     STORAGE                          
              STO-SY =       36075.0884                STO-SY =          82.3467     STORAGE                          
                 WEL =       60412.7498                   WEL =         230.9051     WEL-1                            
                 API =           0.0000                   API =           0.0000     MAR                              
                 CHD =       3.0388E-08                   CHD =           0.0000     CHD_0                            

           TOTAL OUT =       96506.6761             TOTAL OUT =         313.2944

            IN - OUT =       2.7873E-07              IN - OUT =       1.1777E-09

 PERCENT DISCREPANCY =           0.00     PERCENT DISCREPANCY =           0.00




         TIME SUMMARY AT END OF TIME STEP   23 IN STRESS PERIOD    2
                    SECONDS     MINUTES      HOURS       DAYS        YEARS
                    -----------------------------------------------------------
   TIME STEP LENGTH 8.64000E+05  14400.      240.00      10.000     2.73785E-02
 STRESS PERIOD TIME 1.98720E+07 3.31200E+05  5520.0      230.00     0.62971    
         TOTAL TIME 1.99584E+07 3.32640E+05  5544.0      231.00     0.63244    


end timestep


start timestep kper="2" kstp="24" mode="normal"

 UBDSV1 SAVING           STO-SS ON UNIT   1042 AT TIME STEP     24, STRESS PERIOD      2
 UBDSV1 SAVING           STO-SY ON UNIT   1042 AT TIME STEP     24, STRESS PERIOD      2
 UBDSV1 SAVING     FLOW-JA-FACE ON UNIT   1042 AT TIME STEP     24, STRESS PERIOD      2
 UBDSV06 SAVING       DATA-SPDIS IN MODEL GWF              PACKAGE NPF             CONNECTED TO MODEL GWF              PACKAGE NPF              ON UNIT   1042 AT TIME STEP     24, STRESS PERIOD      2
 UBDSV06 SAVING              WEL IN MODEL GWF              PACKAGE GWF             CONNECTED TO MODEL GWF              PACKAGE WEL-1            ON UNIT   1042 AT TIME STEP     24, STRESS PERIOD      2
 UBDSV06 SAVING              API IN MODEL GWF              PACKAGE GWF             CONNECTED TO MODEL GWF              PACKAGE MAR              ON UNIT   1042 AT TIME STEP     24, STRESS PERIOD      2
 UBDSV06 SAVING              CHD IN MODEL GWF              PACKAGE GWF             CONNECTED TO MODEL GWF              PACKAGE CHD_0            ON UNIT   1042 AT TIME STEP     24, STRESS PERIOD      2

    CALCULATED INTERCELL FLOW FOR PERIOD 2 STEP 24
(1,1,1): (1,1,2) 1.494495E-03 (1,2,1) 1.868130E-03
(1,1,2): (1,1,1) -1.494495E-03 (1,1,3) 4.468993E-03 (1,2,2) 5.982836E-03
(1,1,3): (1,1,2) -4.468993E-03 (1,1,4) 9.334352E-03 (1,2,3) 1.916011E-02
(1,1,4): (1,1,3) -9.334352E-03 (1,1,5) 1.208111E-02 (1,2,4) 4.900568E-02
(1,1,5): (1,1,4) -1.208111E-02 (1,1,6) 4.971005E-03 (1,2,5) 9.071487E-02
(1,1,6): (1,1,5) -4.971005E-03 (1,1,7) -4.965443E-03 (1,2,6) 0.106976
(1,1,7): (1,1,6) 4.965443E-03 (1,1,8) -1.205689E-02 (1,2,7) 9.072670E-02
(1,1,8): (1,1,7) 1.205689E-02 (1,1,9) -9.224048E-03 (1,2,8) 4.907202E-02
(1,1,9): (1,1,8) 9.224048E-03 (1,1,10) -4.027100E-03 (1,2,9) 1.949015E-02
(1,1,10): (1,1,9) 4.027100E-03 (1,2,10) 7.442553E-03
(1,2,1): (1,1,1) -1.868130E-03 (1,2,2) 5.609186E-03 (1,3,1) 6.574064E-03
(1,2,2): (1,1,2) -5.982836E-03 (1,2,1) -5.609186E-03 (1,2,3) 1.764606E-02 (1,3,2) 2.224828E-02
(1,2,3): (1,1,3) -1.916011E-02 (1,2,2) -1.764606E-02 (1,2,4) 3.917700E-02 (1,3,3) 7.540025E-02
(1,2,4): (1,1,4) -4.900568E-02 (1,2,3) -3.917700E-02 (1,2,5) 5.377493E-02 (1,3,4) 0.205001
(1,2,5): (1,1,5) -9.071487E-02 (1,2,4) -5.377493E-02 (1,2,6) 2.121782E-02 (1,3,5) 0.401477
(1,2,6): (1,1,6) -0.106976 (1,2,5) -2.121782E-02 (1,2,7) -2.120043E-02 (1,3,6) 0.472075
(1,2,7): (1,1,7) -9.072670E-02 (1,2,6) 2.120043E-02 (1,2,8) -5.369619E-02 (1,3,7) 0.401515
(1,2,8): (1,1,8) -4.907202E-02 (1,2,7) 5.369619E-02 (1,2,9) -3.880289E-02 (1,3,8) 0.205221
(1,2,9): (1,1,9) -1.949015E-02 (1,2,8) 3.880289E-02 (1,2,10) -1.607429E-02 (1,3,9) 7.652691E-02
(1,2,10): (1,1,10) -7.442553E-03 (1,2,9) 1.607429E-02 (1,3,10) 2.744624E-02
(1,3,1): (1,2,1) -6.574064E-03 (1,3,2) 2.128325E-02 (1,4,1) 1.709296E-02
(1,3,2): (1,2,2) -2.224828E-02 (1,3,1) -2.128325E-02 (1,3,3) 7.079559E-02 (1,4,2) 6.219142E-02
(1,3,3): (1,2,3) -7.540025E-02 (1,3,2) -7.079559E-02 (1,3,4) 0.168731 (1,4,3) 0.227975
(1,3,4): (1,2,4) -0.205001 (1,3,3) -0.168731 (1,3,5) 0.249956 (1,4,4) 0.679567
(1,3,5): (1,2,5) -0.401477 (1,3,4) -0.249956 (1,3,6) 9.155271E-02 (1,4,5) 1.46736
(1,3,6): (1,2,6) -0.472075 (1,3,5) -9.155271E-02 (1,3,7) -9.149712E-02 (1,4,6) 1.70238
(1,3,7): (1,2,7) -0.401515 (1,3,6) 9.149712E-02 (1,3,8) -0.249696 (1,4,7) 1.46745
(1,3,8): (1,2,8) -0.205221 (1,3,7) 0.249696 (1,3,9) -0.167448 (1,4,8) 0.680097
(1,3,9): (1,2,9) -7.652691E-02 (1,3,8) 0.167448 (1,3,10) -6.514939E-02 (1,4,9) 0.230795
(1,3,10): (1,2,10) -2.744624E-02 (1,3,9) 6.514939E-02 (1,4,10) 7.590037E-02
(1,4,1): (1,3,1) -1.709296E-02 (1,4,2) 6.638359E-02 (1,5,1) 2.922799E-02
(1,4,2): (1,3,2) -6.219142E-02 (1,4,1) -6.638359E-02 (1,4,3) 0.236593 (1,5,2) 0.117155
(1,4,3): (1,3,3) -0.227975 (1,4,2) -0.236593 (1,4,4) 0.620061 (1,5,3) 0.481866
(1,4,4): (1,3,4) -0.679567 (1,4,3) -0.620061 (1,4,5) 1.03449 (1,5,4) 1.67442
(1,4,5): (1,3,5) -1.46736 (1,4,4) -1.03449 (1,4,6) 0.323538 (1,5,5) 4.43019
(1,4,6): (1,3,6) -1.70238 (1,4,5) -0.323538 (1,4,7) -0.323392 (1,5,6) 4.90580
(1,4,7): (1,3,7) -1.46745 (1,4,6) 0.323392 (1,4,8) -1.03379 (1,5,7) 4.43034
(1,4,8): (1,3,8) -0.680097 (1,4,7) 1.03379 (1,4,9) -0.616470 (1,5,8) 1.67526
(1,4,9): (1,3,9) -0.230795 (1,4,8) 0.616470 (1,4,10) -0.220027 (1,5,9) 0.486458
(1,4,10): (1,3,10) -7.590037E-02 (1,4,9) 0.220027 (1,5,10) 0.140980
(1,5,1): (1,4,1) -2.922799E-02 (1,5,2) 0.154343 (1,6,1) 1.478758E-02
(1,5,2): (1,4,2) -0.117155 (1,5,1) -0.154343 (1,5,3) 0.601734 (1,6,2) 7.348767E-02
(1,5,3): (1,4,3) -0.481866 (1,5,2) -0.601734 (1,5,4) 1.81419 (1,6,3) 0.401691
(1,5,4): (1,4,4) -1.67442 (1,5,3) -1.81419 (1,5,5) 3.77456 (1,6,4) 2.11457
(1,5,5): (1,4,5) -4.43019 (1,5,4) -3.77456 (1,5,6) 0.783083 (1,6,5) 10.9220
(1,5,6): (1,4,6) -4.90580 (1,5,5) -0.783083 (1,5,7) -0.782792 (1,6,6) 10.2549
(1,5,7): (1,4,7) -4.43034 (1,5,6) 0.782792 (1,5,8) -3.77314 (1,6,7) 10.9221
(1,5,8): (1,4,8) -1.67526 (1,5,7) 3.77314 (1,5,9) -1.80674 (1,6,8) 2.11492
(1,5,9): (1,4,9) -0.486458 (1,5,8) 1.80674 (1,5,10) -0.565774 (1,6,9) 0.403762
(1,5,10): (1,4,10) -0.140980 (1,5,9) 0.565774 (1,6,10) 8.585258E-02
(1,6,1): (1,5,1) -1.478758E-02 (1,6,2) 0.213125 (1,7,1) -5.107168E-02
(1,6,2): (1,5,2) -7.348767E-02 (1,6,1) -0.213125 (1,6,3) 0.931631 (1,7,2) -0.236538
(1,6,3): (1,5,3) -0.401691 (1,6,2) -0.931631 (1,6,4) 3.54935 (1,7,3) -1.15215
(1,6,4): (1,5,4) -2.11457 (1,6,3) -3.54935 (1,6,5) 12.6960 (1,7,4) -5.12461
(1,6,5): (1,5,5) -10.9220 (1,6,4) -12.6960 (1,6,6) 0.167262 (1,7,5) -21.3301
(1,6,6): (1,5,6) -10.2549 (1,6,5) -0.167262 (1,6,7) -0.166896 (1,7,6) -34.5772
(1,6,7): (1,5,7) -10.9221 (1,6,6) 0.166896 (1,6,8) -12.6942 (1,7,7) -21.3303
(1,6,8): (1,5,8) -2.11492 (1,6,7) 12.6942 (1,6,9) -3.54001 (1,7,8) -5.12587
(1,6,9): (1,5,9) -0.403762 (1,6,8) 3.54001 (1,6,10) -0.885174 (1,7,9) -1.15953
(1,6,10): (1,5,10) -8.585258E-02 (1,6,9) 0.885174 (1,7,10) -0.279144
(1,7,1): (1,6,1) 5.107168E-02 (1,7,2) 2.770151E-02 (1,8,1) -3.922069E-02
(1,7,2): (1,6,2) 0.236538 (1,7,1) -2.770151E-02 (1,7,3) 1.798968E-02 (1,8,2) -0.182066
(1,7,3): (1,6,3) 1.15215 (1,7,2) -1.798968E-02 (1,7,4) -0.367821 (1,8,3) -0.891156
(1,7,4): (1,6,4) 5.12461 (1,7,3) 0.367821 (1,7,5) -2.56292 (1,8,4) -3.97112
(1,7,5): (1,6,5) 21.3301 (1,7,4) 2.56292 (1,7,6) -10.9553 (1,8,5) -16.0780
(1,7,6): (1,6,6) 34.5772 (1,7,5) 10.9553 (1,7,7) 10.9555 (1,8,6) -60.7750
(1,7,7): (1,6,7) 21.3303 (1,7,6) -10.9555 (1,7,8) 2.56359 (1,8,7) -16.0782
(1,7,8): (1,6,8) 5.12587 (1,7,7) -2.56359 (1,7,9) 0.370763 (1,8,8) -3.97203
(1,7,9): (1,6,9) 1.15953 (1,7,8) -0.370763 (1,7,10) -7.135064E-03 (1,8,9) -0.896762
(1,7,10): (1,6,10) 0.279144 (1,7,9) 7.135064E-03 (1,8,10) -0.214732
(1,8,1): (1,7,1) 3.922069E-02 (1,8,2) -0.115056 (1,9,1) 3.506353E-02
(1,8,2): (1,7,2) 0.182066 (1,8,1) 0.115056 (1,8,3) -0.689686 (1,9,2) 0.165450
(1,8,3): (1,7,3) 0.891156 (1,8,2) 0.689686 (1,8,4) -3.43161 (1,9,3) 0.820454
(1,8,4): (1,7,4) 3.97112 (1,8,3) 3.43161 (1,8,5) -14.4923 (1,9,4) 3.69502
(1,8,5): (1,7,5) 16.0780 (1,8,4) 14.4923 (1,8,6) -52.7916 (1,9,5) 15.1193
(1,8,6): (1,7,6) 60.7750 (1,8,5) 52.7916 (1,8,7) 52.7916 (1,9,6) 59.1768
(1,8,7): (1,7,7) 16.0782 (1,8,6) -52.7916 (1,8,8) 14.4922 (1,9,7) 15.1194
(1,8,8): (1,7,8) 3.97203 (1,8,7) -14.4922 (1,8,9) 3.42980 (1,9,8) 3.69581
(1,8,9): (1,7,9) 0.896762 (1,8,8) -3.42980 (1,8,10) 0.673384 (1,9,9) 0.825396
(1,8,10): (1,7,10) 0.214732 (1,8,9) -0.673384 (1,9,10) 0.194730
(1,9,1): (1,8,1) -3.506353E-02 (1,9,2) 1.526723E-02 (1,10,1) 4.807867E-02
(1,9,2): (1,8,2) -0.165450 (1,9,1) -1.526723E-02 (1,9,3) -3.553369E-02 (1,10,2) 0.221995
(1,9,3): (1,8,3) -0.820454 (1,9,2) 3.553369E-02 (1,9,4) -0.564451 (1,10,3) 1.06826
(1,9,4): (1,8,4) -3.69502 (1,9,3) 0.564451 (1,9,5) -3.13547 (1,10,4) 4.60020
(1,9,5): (1,8,5) -15.1193 (1,9,4) 3.13547 (1,9,6) -11.0302 (1,10,5) 17.7748
(1,9,6): (1,8,6) -59.1768 (1,9,5) 11.0302 (1,9,7) 11.0304 (1,10,6) 30.2664
(1,9,7): (1,8,7) -15.1194 (1,9,6) -11.0304 (1,9,8) 3.13604 (1,10,7) 17.7750
(1,9,8): (1,8,8) -3.69581 (1,9,7) -3.13604 (1,9,9) 0.566860 (1,10,8) 4.60137
(1,9,9): (1,8,9) -0.825396 (1,9,8) -0.566860 (1,9,10) 4.367126E-02 (1,10,9) 1.07519
(1,9,10): (1,8,10) -0.194730 (1,9,9) -4.367126E-02 (1,10,10) 0.262103
(1,10,1): (1,9,1) -4.807867E-02 (1,10,2) 0.189126 (1,11,1) -1.255784E-02
(1,10,2): (1,9,2) -0.221995 (1,10,1) -0.189126 (1,10,3) 0.808595 (1,11,2) -6.171165E-02
(1,10,3): (1,9,3) -1.06826 (1,10,2) -0.808595 (1,10,4) 2.91600 (1,11,3) -0.328640
(1,10,4): (1,9,4) -4.60020 (1,10,3) -2.91600 (1,10,5) 9.27240 (1,11,4) -1.63593
(1,10,5): (1,9,5) -17.7748 (1,10,4) -9.27240 (1,10,6) -0.285816 (1,11,5) -7.68461
(1,10,6): (1,9,6) -30.2664 (1,10,5) 0.285816 (1,10,7) 0.286137 (1,11,6) -6.72040
(1,10,7): (1,9,7) -17.7750 (1,10,6) -0.286137 (1,10,8) -9.27079 (1,11,7) -7.68468
(1,10,8): (1,9,8) -4.60137 (1,10,7) 9.27079 (1,10,9) -2.90763 (1,11,8) -1.63622
(1,10,9): (1,9,9) -1.07519 (1,10,8) 2.90763 (1,10,10) -0.766989 (1,11,9) -0.330400
(1,10,10): (1,9,10) -0.262103 (1,10,9) 0.766989 (1,11,10) -7.219976E-02
(1,11,1): (1,10,1) 1.255784E-02 (1,11,2) 0.139910 (1,12,1) -2.650824E-02
(1,11,2): (1,10,2) 6.171165E-02 (1,11,1) -0.139910 (1,11,3) 0.540415 (1,12,2) -0.105731
(1,11,3): (1,10,3) 0.328640 (1,11,2) -0.540415 (1,11,4) 1.59331 (1,12,3) -0.430514
(1,11,4): (1,10,4) 1.63593 (1,11,3) -1.59331 (1,11,5) 3.14897 (1,12,4) -1.46369
(1,11,5): (1,10,5) 7.68461 (1,11,4) -3.14897 (1,11,6) 0.626058 (1,12,5) -3.71054
(1,11,6): (1,10,6) 6.72040 (1,11,5) -0.626058 (1,11,7) -0.625796 (1,12,6) -4.06474
(1,11,7): (1,10,7) 7.68468 (1,11,6) 0.625796 (1,11,8) -3.14768 (1,12,7) -3.71067
(1,11,8): (1,10,8) 1.63622 (1,11,7) 3.14768 (1,11,9) -1.58653 (1,12,8) -1.46444
(1,11,9): (1,10,9) 0.330400 (1,11,8) 1.58653 (1,11,10) -0.507687 (1,12,9) -0.434679
(1,11,10): (1,10,10) 7.219976E-02 (1,11,9) 0.507687 (1,12,10) -0.127323
(1,12,1): (1,11,1) 2.650824E-02 (1,12,2) 6.066087E-02 (1,13,1) -1.564051E-02
(1,12,2): (1,11,2) 0.105731 (1,12,1) -6.066087E-02 (1,12,3) 0.215280 (1,13,2) -5.677619E-02
(1,12,3): (1,11,3) 0.430514 (1,12,2) -0.215280 (1,12,4) 0.558857 (1,13,3) -0.207243
(1,12,4): (1,11,4) 1.46369 (1,12,3) -0.558857 (1,12,5) 0.913289 (1,13,4) -0.612554
(1,12,5): (1,11,5) 3.71054 (1,12,4) -0.913289 (1,12,6) 0.282081 (1,13,5) -1.30267
(1,12,6): (1,11,6) 4.06474 (1,12,5) -0.282081 (1,12,7) -0.281948 (1,13,6) -1.50506
(1,12,7): (1,11,7) 3.71067 (1,12,6) 0.281948 (1,12,8) -0.912646 (1,13,7) -1.30275
(1,12,8): (1,11,8) 1.46444 (1,12,7) 0.912646 (1,12,9) -0.555568 (1,13,8) -0.613038
(1,12,9): (1,11,9) 0.434679 (1,12,8) 0.555568 (1,12,10) -0.200110 (1,13,9) -0.209823
(1,12,10): (1,11,10) 0.127323 (1,12,9) 0.200110 (1,13,10) -6.931497E-02
(1,13,1): (1,12,1) 1.564051E-02 (1,13,2) 1.952360E-02 (1,14,1) -6.036763E-03
(1,13,2): (1,12,2) 5.677619E-02 (1,13,1) -1.952360E-02 (1,13,3) 6.480186E-02 (1,14,2) -2.040403E-02
(1,13,3): (1,12,3) 0.207243 (1,13,2) -6.480186E-02 (1,13,4) 0.153759 (1,14,3) -6.900647E-02
(1,13,4): (1,12,4) 0.612554 (1,13,3) -0.153759 (1,13,5) 0.225747 (1,14,4) -0.186920
(1,13,5): (1,12,5) 1.30267 (1,13,4) -0.225747 (1,13,6) 8.202514E-02 (1,14,5) -0.363869
(1,13,6): (1,12,6) 1.50506 (1,13,5) -8.202514E-02 (1,13,7) -8.197416E-02 (1,14,6) -0.426870
(1,13,7): (1,12,7) 1.30275 (1,13,6) 8.197416E-02 (1,13,8) -0.225508 (1,14,7) -0.363904
(1,13,8): (1,12,8) 0.613038 (1,13,7) 0.225508 (1,13,9) -0.152580 (1,14,8) -0.187121
(1,13,9): (1,12,9) 0.209823 (1,13,8) 0.152580 (1,13,10) -5.961594E-02 (1,14,9) -7.004117E-02
(1,13,10): (1,12,10) 6.931497E-02 (1,13,9) 5.961594E-02 (1,14,10) -2.517589E-02
(1,14,1): (1,13,1) 6.036763E-03 (1,14,2) 5.156461E-03 (1,15,1) -1.718512E-03
(1,14,2): (1,13,2) 2.040403E-02 (1,14,1) -5.156461E-03 (1,14,3) 1.620146E-02 (1,15,2) -5.499150E-03
(1,14,3): (1,13,3) 6.900647E-02 (1,14,2) -1.620146E-02 (1,14,4) 3.588457E-02 (1,15,3) -1.758993E-02
(1,14,4): (1,13,4) 0.186920 (1,14,3) -3.588457E-02 (1,14,5) 4.903887E-02 (1,15,4) -4.490269E-02
(1,14,5): (1,13,5) 0.363869 (1,14,4) -4.903887E-02 (1,14,6) 1.923799E-02 (1,15,5) -8.288406E-02
(1,14,6): (1,13,6) 0.426870 (1,14,5) -1.923799E-02 (1,14,7) -1.922199E-02 (1,15,6) -9.759691E-02
(1,14,7): (1,13,7) 0.363904 (1,14,6) 1.922199E-02 (1,14,8) -4.896638E-02 (1,15,7) -8.289494E-02
(1,14,8): (1,13,8) 0.187121 (1,14,7) 4.896638E-02 (1,14,9) -3.554020E-02 (1,15,8) -4.496372E-02
(1,14,9): (1,13,9) 7.004117E-02 (1,14,8) 3.554020E-02 (1,14,10) -1.475532E-02 (1,15,9) -1.789359E-02
(1,14,10): (1,13,10) 2.517589E-02 (1,14,9) 1.475532E-02 (1,15,10) -6.841715E-03
(1,15,1): (1,14,1) 1.718512E-03 (1,15,2) 1.375835E-03
(1,15,2): (1,14,2) 5.499150E-03 (1,15,1) -1.375835E-03 (1,15,3) 4.110851E-03
(1,15,3): (1,14,3) 1.758993E-02 (1,15,2) -4.110851E-03 (1,15,4) 8.574266E-03
(1,15,4): (1,14,4) 4.490269E-02 (1,15,3) -8.574266E-03 (1,15,5) 1.107032E-02
(1,15,5): (1,14,5) 8.288406E-02 (1,15,4) -1.107032E-02 (1,15,6) 4.536627E-03
(1,15,6): (1,14,6) 9.759691E-02 (1,15,5) -4.536627E-03 (1,15,7) -4.531501E-03
(1,15,7): (1,14,7) 8.289494E-02 (1,15,6) 4.531501E-03 (1,15,8) -1.104800E-02
(1,15,8): (1,14,8) 4.496372E-02 (1,15,7) 1.104800E-02 (1,15,9) -8.472618E-03
(1,15,9): (1,14,9) 1.789359E-02 (1,15,8) 8.472618E-03 (1,15,10) -3.703795E-03
(1,15,10): (1,14,10) 6.841715E-03 (1,15,9) 3.703795E-03

 WEL PACKAGE (WEL-1) FLOW RATES   PERIOD      2   STEP       24
 ----------------------------------------------------------------------------------------
   NUMBER   CELLID                    RATE       NAME                                    
 ----------------------------------------------------------------------------------------
     1      (1,8,6)              -228.61067      WEL                                     
 ----------------------------------------------------------------------------------------




 API PACKAGE (MAR) FLOW RATES   PERIOD      2   STEP       24
 -----------------------------------------------
   NUMBER   CELLID                    RATE      
 -----------------------------------------------
     1      (1,6,5)               46.666667     
     2      (1,6,6)               46.666667     
     3      (1,6,7)               46.666667     
     4      (1,10,5)              29.536890     
     5      (1,10,6)              29.536890     
     6      (1,10,7)              29.536890     
 -----------------------------------------------



1
  HEAD IN LAYER   1 AT END OF TIME STEP  24 IN STRESS PERIOD    2
  ---------------------------------------------------------------------------

            1           2           3           4           5           6           7           8           9          10
 ........................................................................................................................
   1   7.5832E-05  2.2528E-04  6.7215E-04  1.6054E-03  2.8132E-03  3.3101E-03  2.8138E-03  1.6084E-03  6.8615E-04  2.8347E-04
   2   2.6264E-04  8.2351E-04  2.5877E-03  6.5028E-03  1.1874E-02  1.3993E-02  1.1876E-02  6.5124E-03  2.6347E-03  1.0276E-03
   3   9.1999E-04  3.0477E-03  1.0120E-02  2.6948E-02  5.1815E-02  6.0914E-02  5.1820E-02  2.6979E-02  1.0279E-02  3.7712E-03
   4   2.6288E-03  9.2611E-03  3.2843E-02  9.4270E-02  0.1957      0.2274      0.1957      9.4353E-02  3.3282E-02  1.1353E-02
   5   5.5500E-03  2.0952E-02  8.0644E-02  0.2575      0.6132      0.6864      0.6132      0.2577      8.1535E-02  2.5415E-02
   6   7.0277E-03  2.8280E-02  0.1203      0.4597       1.558       1.573       1.558      0.4599      0.1214      3.3971E-02
   7   1.9241E-03  4.6930E-03  6.4908E-03 -3.0267E-02 -0.2873      -1.415     -0.2873     -3.0187E-02  6.8642E-03  6.1512E-03
   8  -1.9972E-03 -1.3505E-02 -8.2567E-02 -0.4286      -1.943      -8.495      -1.943     -0.4286     -8.2750E-02 -1.5309E-02
   9   1.5087E-03  3.0349E-03 -5.1737E-04 -5.6965E-02 -0.3723      -1.518     -0.3723     -5.6896E-02 -2.0916E-04  4.1561E-03
  10   6.3135E-03  2.5179E-02  0.1052      0.3860       1.213       1.187       1.213      0.3861      0.1062      3.0287E-02
  11   5.0585E-03  1.9023E-02  7.2675E-02  0.2284      0.5276      0.5867      0.5276      0.2286      7.3488E-02  2.3089E-02
  12   2.4090E-03  8.4700E-03  2.9934E-02  8.5347E-02  0.1751      0.2028      0.1751      8.5423E-02  3.0337E-02  1.0386E-02
  13   8.4534E-04  2.7972E-03  9.2713E-03  2.4610E-02  4.7078E-02  5.5236E-02  4.7083E-02  2.4638E-02  9.4179E-03  3.4619E-03
  14   2.4172E-04  7.5732E-04  2.3771E-03  5.9634E-03  1.0862E-02  1.2783E-02  1.0864E-02  5.9722E-03  2.4203E-03  9.4517E-04
  15   6.9870E-05  2.0745E-04  6.1851E-04  1.4758E-03  2.5826E-03  3.0361E-03  2.5831E-03  1.4786E-03  6.3142E-04  2.6106E-04

 HEAD WILL BE SAVED ON UNIT 1043 AT END OF TIME STEP   24, STRESS PERIOD    2


  VOLUME BUDGET FOR ENTIRE MODEL AT END OF TIME STEP   24, STRESS PERIOD   2
  ---------------------------------------------------------------------------------------------------

     CUMULATIVE VOLUME      L**3       RATES FOR THIS TIME STEP      L**3/T          PACKAGE NAME    
     ------------------                 ------------------------                     ----------------

           IN:                                      IN:
           ---                                      ---
              STO-SS =          14.2468                STO-SS =       3.6444E-02     STORAGE                          
              STO-SY =       36865.7067                STO-SY =          78.5663     STORAGE                          
                 WEL =           0.0000                   WEL =           0.0000     WEL-1                            
                 API =       62698.8565                   API =         228.6107     MAR                              
                 CHD =       2.8247E-08                   CHD =           0.0000     CHD_0                            

            TOTAL IN =       99578.8101              TOTAL IN =         307.2134

          OUT:                                     OUT:
          ----                                     ----
              STO-SS =          19.2434                STO-SS =       4.0545E-02     STORAGE                          
              STO-SY =       36860.7102                STO-SY =          78.5622     STORAGE                          
                 WEL =       62698.8565                   WEL =         228.6107     WEL-1                            
                 API =           0.0000                   API =           0.0000     MAR                              
                 CHD =       3.0388E-08                   CHD =           0.0000     CHD_0                            

           TOTAL OUT =       99578.8101             TOTAL OUT =         307.2134

            IN - OUT =       2.7656E-07              IN - OUT =      -2.1691E-10

 PERCENT DISCREPANCY =           0.00     PERCENT DISCREPANCY =          -0.00




         TIME SUMMARY AT END OF TIME STEP   24 IN STRESS PERIOD    2
                    SECONDS     MINUTES      HOURS       DAYS        YEARS
                    -----------------------------------------------------------
   TIME STEP LENGTH 8.64000E+05  14400.      240.00      10.000     2.73785E-02
 STRESS PERIOD TIME 2.07360E+07 3.45600E+05  5760.0      240.00     0.65708    
         TOTAL TIME 2.08224E+07 3.47040E+05  5784.0      241.00     0.65982    


end timestep


start timestep kper="2" kstp="25" mode="normal"

 UBDSV1 SAVING           STO-SS ON UNIT   1042 AT TIME STEP     25, STRESS PERIOD      2
 UBDSV1 SAVING           STO-SY ON UNIT   1042 AT TIME STEP     25, STRESS PERIOD      2
 UBDSV1 SAVING     FLOW-JA-FACE ON UNIT   1042 AT TIME STEP     25, STRESS PERIOD      2
 UBDSV06 SAVING       DATA-SPDIS IN MODEL GWF              PACKAGE NPF             CONNECTED TO MODEL GWF              PACKAGE NPF              ON UNIT   1042 AT TIME STEP     25, STRESS PERIOD      2
 UBDSV06 SAVING              WEL IN MODEL GWF              PACKAGE GWF             CONNECTED TO MODEL GWF              PACKAGE WEL-1            ON UNIT   1042 AT TIME STEP     25, STRESS PERIOD      2
 UBDSV06 SAVING              API IN MODEL GWF              PACKAGE GWF             CONNECTED TO MODEL GWF              PACKAGE MAR              ON UNIT   1042 AT TIME STEP     25, STRESS PERIOD      2
 UBDSV06 SAVING              CHD IN MODEL GWF              PACKAGE GWF             CONNECTED TO MODEL GWF              PACKAGE CHD_0            ON UNIT   1042 AT TIME STEP     25, STRESS PERIOD      2

    CALCULATED INTERCELL FLOW FOR PERIOD 2 STEP 25
(1,1,1): (1,1,2) 1.818400E-03 (1,2,1) 2.269761E-03
(1,1,2): (1,1,1) -1.818400E-03 (1,1,3) 5.321906E-03 (1,2,2) 7.065672E-03
(1,1,3): (1,1,2) -5.321906E-03 (1,1,4) 1.086656E-02 (1,2,3) 2.208871E-02
(1,1,4): (1,1,3) -1.086656E-02 (1,1,5) 1.380864E-02 (1,2,4) 5.533947E-02
(1,1,5): (1,1,4) -1.380864E-02 (1,1,6) 5.699899E-03 (1,2,5) 0.100936
(1,1,6): (1,1,5) -5.699899E-03 (1,1,7) -5.692347E-03 (1,2,6) 0.118794
(1,1,7): (1,1,6) 5.692347E-03 (1,1,8) -1.377672E-02 (1,2,7) 0.100951
(1,1,8): (1,1,7) 1.377672E-02 (1,1,9) -1.072499E-02 (1,2,8) 5.542378E-02
(1,1,9): (1,1,8) 1.072499E-02 (1,1,10) -4.769655E-03 (1,2,9) 2.249737E-02
(1,1,10): (1,1,9) 4.769655E-03 (1,2,10) 8.826865E-03
(1,2,1): (1,1,1) -2.269761E-03 (1,2,2) 6.614290E-03 (1,3,1) 7.779794E-03
(1,2,2): (1,1,2) -7.065672E-03 (1,2,1) -6.614290E-03 (1,2,3) 2.034469E-02 (1,3,2) 2.556796E-02
(1,2,3): (1,1,3) -2.208871E-02 (1,2,2) -2.034469E-02 (1,2,4) 4.411359E-02 (1,3,3) 8.452051E-02
(1,2,4): (1,1,4) -5.533947E-02 (1,2,3) -4.411359E-02 (1,2,5) 5.938615E-02 (1,3,4) 0.224903
(1,2,5): (1,1,5) -0.100936 (1,2,4) -5.938615E-02 (1,2,6) 2.354071E-02 (1,3,5) 0.433589
(1,2,6): (1,1,6) -0.118794 (1,2,5) -2.354071E-02 (1,2,7) -2.351775E-02 (1,3,6) 0.508996
(1,2,7): (1,1,7) -0.100951 (1,2,6) 2.351775E-02 (1,2,8) -5.928531E-02 (1,3,7) 0.433638
(1,2,8): (1,1,8) -5.542378E-02 (1,2,7) 5.928531E-02 (1,2,9) -4.364754E-02 (1,3,8) 0.225175
(1,2,9): (1,1,9) -2.249737E-02 (1,2,8) 4.364754E-02 (1,2,10) -1.843960E-02 (1,3,9) 8.588080E-02
(1,2,10): (1,1,10) -8.826865E-03 (1,2,9) 1.843960E-02 (1,3,10) 3.167742E-02
(1,3,1): (1,2,1) -7.779794E-03 (1,3,2) 2.440225E-02 (1,4,1) 1.962352E-02
(1,3,2): (1,2,2) -2.556796E-02 (1,3,1) -2.440225E-02 (1,3,3) 7.929416E-02 (1,4,2) 6.929017E-02
(1,3,3): (1,2,3) -8.452051E-02 (1,3,2) -7.929416E-02 (1,3,4) 0.184440 (1,4,3) 0.247661
(1,3,4): (1,2,4) -0.224903 (1,3,3) -0.184440 (1,3,5) 0.267731 (1,4,4) 0.722316
(1,3,5): (1,2,5) -0.433589 (1,3,4) -0.267731 (1,3,6) 9.864353E-02 (1,4,5) 1.53476
(1,3,6): (1,2,6) -0.508996 (1,3,5) -9.864353E-02 (1,3,7) -9.857193E-02 (1,4,6) 1.77828
(1,3,7): (1,2,7) -0.433638 (1,3,6) 9.857193E-02 (1,3,8) -0.267407 (1,4,7) 1.53487
(1,3,8): (1,2,8) -0.225175 (1,3,7) 0.267407 (1,3,9) -0.182883 (1,4,8) 0.722955
(1,3,9): (1,2,9) -8.588080E-02 (1,3,8) 0.182883 (1,3,10) -7.263583E-02 (1,4,9) 0.250968
(1,3,10): (1,2,10) -3.167742E-02 (1,3,9) 7.263583E-02 (1,4,10) 8.492596E-02
(1,4,1): (1,3,1) -1.962352E-02 (1,4,2) 7.407127E-02 (1,5,1) 3.240429E-02
(1,4,2): (1,3,2) -6.929017E-02 (1,4,1) -7.407127E-02 (1,4,3) 0.257683 (1,5,2) 0.126041
(1,4,3): (1,3,3) -0.247661 (1,4,2) -0.257683 (1,4,4) 0.658800 (1,5,3) 0.505850
(1,4,4): (1,3,4) -0.722316 (1,4,3) -0.658800 (1,4,5) 1.07663 (1,5,4) 1.72257
(1,4,5): (1,3,5) -1.53476 (1,4,4) -1.07663 (1,4,6) 0.338889 (1,5,5) 4.49466
(1,4,6): (1,3,6) -1.77828 (1,4,5) -0.338889 (1,4,7) -0.338704 (1,5,6) 4.97023
(1,4,7): (1,3,7) -1.53487 (1,4,6) 0.338704 (1,4,8) -1.07578 (1,5,7) 4.49484
(1,4,8): (1,3,8) -0.722955 (1,4,7) 1.07578 (1,4,9) -0.654555 (1,5,8) 1.72354
(1,4,9): (1,3,9) -0.250968 (1,4,8) 0.654555 (1,4,10) -0.238658 (1,5,9) 0.511054
(1,4,10): (1,3,10) -8.492596E-02 (1,4,9) 0.238658 (1,5,10) 0.152291
(1,5,1): (1,4,1) -3.240429E-02 (1,5,2) 0.167747 (1,6,1) 1.498323E-02
(1,5,2): (1,4,2) -0.126041 (1,5,1) -0.167747 (1,5,3) 0.637984 (1,6,2) 7.308359E-02
(1,5,3): (1,4,3) -0.505850 (1,5,2) -0.637984 (1,5,4) 1.87729 (1,6,3) 0.396313
(1,5,4): (1,4,4) -1.72257 (1,5,3) -1.87729 (1,5,5) 3.83284 (1,6,4) 2.08647
(1,5,5): (1,4,5) -4.49466 (1,5,4) -3.83284 (1,5,6) 0.798292 (1,6,5) 10.8352
(1,5,6): (1,4,6) -4.97023 (1,5,5) -0.798292 (1,5,7) -0.797934 (1,6,6) 10.1324
(1,5,7): (1,4,7) -4.49484 (1,5,6) 0.797934 (1,5,8) -3.83115 (1,6,7) 10.8353
(1,5,8): (1,4,8) -1.72354 (1,5,7) 3.83115 (1,5,9) -1.86870 (1,6,8) 2.08684
(1,5,9): (1,4,9) -0.511054 (1,5,8) 1.86870 (1,5,10) -0.597726 (1,6,9) 0.398448
(1,5,10): (1,4,10) -0.152291 (1,5,9) 0.597726 (1,6,10) 8.554980E-02
(1,6,1): (1,5,1) -1.498323E-02 (1,6,2) 0.225936 (1,7,1) -5.673728E-02
(1,6,2): (1,5,2) -7.308359E-02 (1,6,1) -0.225936 (1,6,3) 0.962997 (1,7,2) -0.255058
(1,6,3): (1,5,3) -0.396313 (1,6,2) -0.962997 (1,6,4) 3.59046 (1,7,3) -1.21164
(1,6,4): (1,5,4) -2.08647 (1,6,3) -3.59046 (1,6,5) 12.7005 (1,7,4) -5.27508
(1,6,5): (1,5,5) -10.8352 (1,6,4) -12.7005 (1,6,6) 0.148697 (1,7,5) -21.6115
(1,6,6): (1,5,6) -10.1324 (1,6,5) -0.148697 (1,6,7) -0.148256 (1,7,6) -34.8917
(1,6,7): (1,5,7) -10.8353 (1,6,6) 0.148256 (1,6,8) -12.6984 (1,7,7) -21.6118
(1,6,8): (1,5,8) -2.08684 (1,6,7) 12.6984 (1,6,9) -3.57991 (1,7,8) -5.27655
(1,6,9): (1,5,9) -0.398448 (1,6,8) 3.57991 (1,6,10) -0.912188 (1,7,9) -1.22004
(1,6,10): (1,5,10) -8.554980E-02 (1,6,9) 0.912188 (1,7,10) -0.302137
(1,7,1): (1,6,1) 5.673728E-02 (1,7,2) 2.767265E-02 (1,8,1) -4.339655E-02
(1,7,2): (1,6,2) 0.255058 (1,7,1) -2.767265E-02 (1,7,3) 8.725564E-03 (1,8,2) -0.195686
(1,7,3): (1,6,3) 1.21164 (1,7,2) -8.725564E-03 (1,7,4) -0.412850 (1,8,3) -0.934885
(1,7,4): (1,6,4) 5.27508 (1,7,3) 0.412850 (1,7,5) -2.65562 (1,8,4) -4.07816
(1,7,5): (1,6,5) 21.6115 (1,7,4) 2.65562 (1,7,6) -10.9779 (1,8,5) -16.2236
(1,7,6): (1,6,6) 34.8917 (1,7,5) 10.9779 (1,7,7) 10.9781 (1,8,6) -60.5894
(1,7,7): (1,6,7) 21.6118 (1,7,6) -10.9781 (1,7,8) 2.65641 (1,8,7) -16.2238
(1,7,8): (1,6,8) 5.27655 (1,7,7) -2.65641 (1,7,9) 0.416170 (1,8,8) -4.07923
(1,7,9): (1,6,9) 1.22004 (1,7,8) -0.416170 (1,7,10) 2.963325E-03 (1,8,9) -0.941224
(1,7,10): (1,6,10) 0.302137 (1,7,9) -2.963325E-03 (1,8,10) -0.231637
(1,8,1): (1,7,1) 4.339655E-02 (1,8,2) -0.124516 (1,9,1) 3.860758E-02
(1,8,2): (1,7,2) 0.195686 (1,8,1) 0.124516 (1,8,3) -0.728965 (1,9,2) 0.176868
(1,8,3): (1,7,3) 0.934885 (1,8,2) 0.728965 (1,8,4) -3.53965 (1,9,3) 0.855177
(1,8,4): (1,7,4) 4.07816 (1,8,3) 3.53965 (1,8,5) -14.6207 (1,9,4) 3.76561
(1,8,5): (1,7,5) 16.2236 (1,8,4) 14.6207 (1,8,6) -52.4226 (1,9,5) 15.1390
(1,8,6): (1,7,6) 60.5894 (1,8,5) 52.4226 (1,8,7) 52.4226 (1,9,6) 58.7814
(1,8,7): (1,7,7) 16.2238 (1,8,6) -52.4226 (1,8,8) 14.6206 (1,9,7) 15.1391
(1,8,8): (1,7,8) 4.07923 (1,8,7) -14.6206 (1,8,9) 3.53763 (1,9,8) 3.76652
(1,8,9): (1,7,9) 0.941224 (1,8,8) -3.53763 (1,8,10) 0.710931 (1,9,9) 0.860738
(1,8,10): (1,7,10) 0.231637 (1,8,9) -0.710931 (1,9,10) 0.208937
(1,9,1): (1,8,1) -3.860758E-02 (1,9,2) 1.367425E-02 (1,10,1) 5.331644E-02
(1,9,2): (1,8,2) -0.176868 (1,9,1) -1.367425E-02 (1,9,3) -5.150667E-02 (1,10,2) 0.238567
(1,9,3): (1,8,3) -0.855177 (1,9,2) 5.150667E-02 (1,9,4) -0.635665 (1,10,3) 1.11633
(1,9,4): (1,8,4) -3.76561 (1,9,3) 0.635665 (1,9,5) -3.30308 (1,10,4) 4.68289
(1,9,5): (1,8,5) -15.1390 (1,9,4) 3.30308 (1,9,6) -11.0636 (1,10,5) 17.7179
(1,9,6): (1,8,6) -58.7814 (1,9,5) 11.0636 (1,9,7) 11.0638 (1,10,6) 30.1578
(1,9,7): (1,8,7) -15.1391 (1,9,6) -11.0638 (1,9,8) 3.30375 (1,10,7) 17.7181
(1,9,8): (1,8,8) -3.76652 (1,9,7) -3.30375 (1,9,9) 0.638365 (1,10,8) 4.68424
(1,9,9): (1,8,9) -0.860738 (1,9,8) -0.638365 (1,9,10) 6.009902E-02 (1,10,9) 1.12419
(1,9,10): (1,8,10) -0.208937 (1,9,9) -6.009902E-02 (1,10,10) 0.282801
(1,10,1): (1,9,1) -5.331644E-02 (1,10,2) 0.198851 (1,11,1) -1.248072E-02
(1,10,2): (1,9,2) -0.238567 (1,10,1) -0.198851 (1,10,3) 0.823775 (1,11,2) -5.983850E-02
(1,10,3): (1,9,3) -1.11633 (1,10,2) -0.823775 (1,10,4) 2.87568 (1,11,3) -0.313498
(1,10,4): (1,9,4) -4.68289 (1,10,3) -2.87568 (1,10,5) 8.95484 (1,11,4) -1.54689
(1,10,5): (1,9,5) -17.7179 (1,10,4) -8.95484 (1,10,6) -0.361445 (1,11,5) -7.30033
(1,10,6): (1,9,6) -30.1578 (1,10,5) 0.361445 (1,10,7) 0.361829 (1,11,6) -6.26527
(1,10,7): (1,9,7) -17.7181 (1,10,6) -0.361829 (1,10,8) -8.95298 (1,11,7) -7.30039
(1,10,8): (1,9,8) -4.68424 (1,10,7) 8.95298 (1,10,9) -2.86627 (1,11,8) -1.54720
(1,10,9): (1,9,9) -1.12419 (1,10,8) 2.86627 (1,10,10) -0.778492 (1,11,9) -0.315282
(1,10,10): (1,9,10) -0.282801 (1,10,9) 0.778492 (1,11,10) -7.020219E-02
(1,11,1): (1,10,1) 1.248072E-02 (1,11,2) 0.151428 (1,12,1) -2.929592E-02
(1,11,2): (1,10,2) 5.983850E-02 (1,11,1) -0.151428 (1,11,3) 0.568850 (1,12,2) -0.113161
(1,11,3): (1,10,3) 0.313498 (1,11,2) -0.568850 (1,11,4) 1.62720 (1,12,3) -0.448027
(1,11,4): (1,10,4) 1.54689 (1,11,3) -1.62720 (1,11,5) 3.12690 (1,12,4) -1.48402
(1,11,5): (1,10,5) 7.30033 (1,11,4) -3.12690 (1,11,6) 0.620649 (1,12,5) -3.68225
(1,11,6): (1,10,6) 6.26527 (1,11,5) -0.620649 (1,11,7) -0.620327 (1,12,6) -4.02027
(1,11,7): (1,10,7) 7.30039 (1,11,6) 0.620327 (1,11,8) -3.12537 (1,12,7) -3.68241
(1,11,8): (1,10,8) 1.54720 (1,11,7) 3.12537 (1,11,9) -1.61939 (1,12,8) -1.48490
(1,11,9): (1,10,9) 0.315282 (1,11,8) 1.61939 (1,11,10) -0.532303 (1,12,9) -0.452736
(1,11,10): (1,10,10) 7.020219E-02 (1,11,9) 0.532303 (1,12,10) -0.136870
(1,12,1): (1,11,1) 2.929592E-02 (1,12,2) 6.753127E-02 (1,13,1) -1.792828E-02
(1,12,2): (1,11,2) 0.113161 (1,12,1) -6.753127E-02 (1,12,3) 0.233587 (1,13,2) -6.310276E-02
(1,12,3): (1,11,3) 0.448027 (1,12,2) -0.233587 (1,12,4) 0.589794 (1,13,3) -0.224244
(1,12,4): (1,11,4) 1.48402 (1,12,3) -0.589794 (1,12,5) 0.939466 (1,13,4) -0.646785
(1,12,5): (1,11,5) 3.68225 (1,12,4) -0.939466 (1,12,6) 0.292248 (1,13,5) -1.34860
(1,12,6): (1,11,6) 4.02027 (1,12,5) -0.292248 (1,12,7) -0.292081 (1,13,6) -1.55539
(1,12,7): (1,11,7) 3.68241 (1,12,6) 0.292081 (1,12,8) -0.938685 (1,13,7) -1.34871
(1,12,8): (1,11,8) 1.48490 (1,12,7) 0.938685 (1,12,9) -0.585908 (1,13,8) -0.647368
(1,12,9): (1,11,9) 0.452736 (1,12,8) 0.585908 (1,12,10) -0.216190 (1,13,9) -0.227266
(1,12,10): (1,11,10) 0.136870 (1,12,9) 0.216190 (1,13,10) -7.737990E-02
(1,13,1): (1,12,1) 1.792828E-02 (1,13,2) 2.235479E-02 (1,14,1) -7.137403E-03
(1,13,2): (1,12,2) 6.310276E-02 (1,13,1) -2.235479E-02 (1,13,3) 7.243108E-02 (1,14,2) -2.341704E-02
(1,13,3): (1,12,3) 0.224244 (1,13,2) -7.243108E-02 (1,13,4) 0.167488 (1,14,3) -7.719394E-02
(1,13,4): (1,12,4) 0.646785 (1,13,3) -0.167488 (1,13,5) 0.240392 (1,14,4) -0.204399
(1,13,5): (1,12,5) 1.34860 (1,13,4) -0.240392 (1,13,6) 8.792412E-02 (1,14,5) -0.391073
(1,13,6): (1,12,6) 1.55539 (1,13,5) -8.792412E-02 (1,13,7) -8.785851E-02 (1,14,6) -0.457952
(1,13,7): (1,12,7) 1.34871 (1,13,6) 8.785851E-02 (1,13,8) -0.240094 (1,14,7) -0.391118
(1,13,8): (1,12,8) 0.647368 (1,13,7) 0.240094 (1,13,9) -0.166059 (1,14,8) -0.204648
(1,13,9): (1,12,9) 0.227266 (1,13,8) 0.166059 (1,13,10) -6.632111E-02 (1,14,9) -7.844220E-02
(1,13,10): (1,12,10) 7.737990E-02 (1,13,9) 6.632111E-02 (1,14,10) -2.902013E-02
(1,14,1): (1,13,1) 7.137403E-03 (1,14,2) 6.075332E-03 (1,15,1) -2.086663E-03
(1,14,2): (1,13,2) 2.341704E-02 (1,14,1) -6.075332E-03 (1,14,3) 1.865674E-02 (1,15,2) -6.488917E-03
(1,14,3): (1,13,3) 7.719394E-02 (1,14,2) -1.865674E-02 (1,14,4) 4.033009E-02 (1,15,3) -2.025401E-02
(1,14,4): (1,13,4) 0.204399 (1,14,3) -4.033009E-02 (1,14,5) 5.399526E-02 (1,15,4) -5.061592E-02
(1,14,5): (1,13,5) 0.391073 (1,14,4) -5.399526E-02 (1,14,6) 2.128886E-02 (1,15,5) -9.199264E-02
(1,14,6): (1,13,6) 0.457952 (1,14,5) -2.128886E-02 (1,14,7) -2.126775E-02 (1,15,6) -0.108100
(1,14,7): (1,13,7) 0.391118 (1,14,6) 2.126775E-02 (1,14,8) -5.390246E-02 (1,15,7) -9.200680E-02
(1,14,8): (1,13,8) 0.204648 (1,14,7) 5.390246E-02 (1,14,9) -3.990131E-02 (1,15,8) -5.069343E-02
(1,14,9): (1,13,9) 7.844220E-02 (1,14,8) 3.990131E-02 (1,14,10) -1.690501E-02 (1,15,9) -2.062978E-02
(1,14,10): (1,13,10) 2.902013E-02 (1,14,9) 1.690501E-02 (1,15,10) -8.107674E-03
(1,15,1): (1,14,1) 2.086663E-03 (1,15,2) 1.673097E-03
(1,15,2): (1,14,2) 6.488917E-03 (1,15,1) -1.673097E-03 (1,15,3) 4.891859E-03
(1,15,3): (1,14,3) 2.025401E-02 (1,15,2) -4.891859E-03 (1,15,4) 9.971306E-03
(1,15,4): (1,14,4) 5.061592E-02 (1,15,3) -9.971306E-03 (1,15,5) 1.263420E-02
(1,15,5): (1,14,5) 9.199264E-02 (1,15,4) -1.263420E-02 (1,15,6) 5.194957E-03
(1,15,6): (1,14,6) 0.108100 (1,15,5) -5.194957E-03 (1,15,7) -5.187999E-03
(1,15,7): (1,14,7) 9.200680E-02 (1,15,6) 5.187999E-03 (1,15,8) -1.260479E-02
(1,15,8): (1,14,8) 5.069343E-02 (1,15,7) 1.260479E-02 (1,15,9) -9.840898E-03
(1,15,9): (1,14,9) 2.062978E-02 (1,15,8) 9.840898E-03 (1,15,10) -4.383368E-03
(1,15,10): (1,14,10) 8.107674E-03 (1,15,9) 4.383368E-03

 WEL PACKAGE (WEL-1) FLOW RATES   PERIOD      2   STEP       25
 ----------------------------------------------------------------------------------------
   NUMBER   CELLID                    RATE       NAME                                    
 ----------------------------------------------------------------------------------------
     1      (1,8,6)              -226.71259      WEL                                     
 ----------------------------------------------------------------------------------------




 API PACKAGE (MAR) FLOW RATES   PERIOD      2   STEP       25
 -----------------------------------------------
   NUMBER   CELLID                    RATE      
 -----------------------------------------------
     1      (1,6,5)               46.666667     
     2      (1,6,6)               46.666667     
     3      (1,6,7)               46.666667     
     4      (1,10,5)              28.904196     
     5      (1,10,6)              28.904196     
     6      (1,10,7)              28.904196     
 -----------------------------------------------



1
  HEAD IN LAYER   1 AT END OF TIME STEP  25 IN STRESS PERIOD    2
  ---------------------------------------------------------------------------

            1           2           3           4           5           6           7           8           9          10
 ........................................................................................................................
   1   9.6262E-05  2.7810E-04  8.1024E-04  1.8967E-03  3.2771E-03  3.8469E-03  3.2779E-03  1.9006E-03  8.2835E-04  3.5142E-04
   2   3.2323E-04  9.8459E-04  3.0184E-03  7.4265E-03  1.3357E-02  1.5708E-02  1.3360E-02  7.4389E-03  3.0774E-03  1.2340E-03
   3   1.1011E-03  3.5405E-03  1.1461E-02  2.9850E-02  5.6473E-02  6.6272E-02  5.6480E-02  2.9889E-02  1.1655E-02  4.4003E-03
   4   3.0629E-03  1.0462E-02  3.6138E-02  0.1014      0.2068      0.2399      0.2069      0.1015      3.6661E-02  1.2882E-02
   5   6.3013E-03  2.3037E-02  8.6290E-02  0.2691      0.6297      0.7043      0.6297      0.2693      8.7324E-02  2.8068E-02
   6   7.7984E-03  3.0324E-02  0.1254      0.4684       1.566       1.579       1.566      0.4686      0.1267      3.6592E-02
   7   2.1291E-03  4.8950E-03  5.7671E-03 -3.5494E-02 -0.3020      -1.434     -0.3020     -3.5399E-02  6.1926E-03  6.4887E-03
   8  -2.2096E-03 -1.4664E-02 -8.7668E-02 -0.4448      -1.975      -8.507      -1.975     -0.4448     -8.7872E-02 -1.6660E-02
   9   1.6505E-03  3.0175E-03 -2.1316E-03 -6.5712E-02 -0.3982      -1.550     -0.3982     -6.5630E-02 -1.7824E-03  4.2249E-03
  10   6.9784E-03  2.6810E-02  0.1083      0.3852       1.186       1.153       1.186      0.3854      0.1094      3.2414E-02
  11   5.7312E-03  2.0843E-02  7.7291E-02  0.2363      0.5331      0.5917      0.5331      0.2364      7.8233E-02  2.5416E-02
  12   2.8033E-03  9.5500E-03  3.2832E-02  9.1278E-02  0.1835      0.2121      0.1835      9.1371E-02  3.3311E-02  1.1764E-02
  13   1.0110E-03  3.2457E-03  1.0481E-02  2.7185E-02  5.1102E-02  5.9842E-02  5.1108E-02  2.7221E-02  1.0660E-02  4.0350E-03
  14   2.9732E-04  9.0480E-04  2.7700E-03  6.8002E-03  1.2193E-02  1.4319E-02  1.2195E-02  6.8116E-03  2.8242E-03  1.1342E-03
  15   8.8659E-05  2.5596E-04  7.4511E-04  1.7421E-03  3.0051E-03  3.5244E-03  3.0058E-03  1.7457E-03  7.6179E-04  3.2349E-04

 HEAD WILL BE SAVED ON UNIT 1043 AT END OF TIME STEP   25, STRESS PERIOD    2


  VOLUME BUDGET FOR ENTIRE MODEL AT END OF TIME STEP   25, STRESS PERIOD   2
  ---------------------------------------------------------------------------------------------------

     CUMULATIVE VOLUME      L**3       RATES FOR THIS TIME STEP      L**3/T          PACKAGE NAME    
     ------------------                 ------------------------                     ----------------

           IN:                                      IN:
           ---                                      ---
              STO-SS =          14.5987                STO-SS =       3.5182E-02     STORAGE                          
              STO-SY =       37619.0122                STO-SY =          75.3305     STORAGE                          
                 WEL =           0.0000                   WEL =           0.0000     WEL-1                            
                 API =       64965.9824                   API =         226.7126     MAR                              
                 CHD =       2.8247E-08                   CHD =           0.0000     CHD_0                            

            TOTAL IN =      102599.5932              TOTAL IN =         302.0783

          OUT:                                     OUT:
          ----                                     ----
              STO-SS =          19.6318                STO-SS =       3.8841E-02     STORAGE                          
              STO-SY =       37613.9790                STO-SY =          75.3269     STORAGE                          
                 WEL =       64965.9824                   WEL =         226.7126     WEL-1                            
                 API =           0.0000                   API =           0.0000     MAR                              
                 CHD =       3.0388E-08                   CHD =           0.0000     CHD_0                            

           TOTAL OUT =      102599.5932             TOTAL OUT =         302.0783

            IN - OUT =       2.6829E-07              IN - OUT =      -8.2827E-10

 PERCENT DISCREPANCY =           0.00     PERCENT DISCREPANCY =          -0.00




         TIME SUMMARY AT END OF TIME STEP   25 IN STRESS PERIOD    2
                    SECONDS     MINUTES      HOURS       DAYS        YEARS
                    -----------------------------------------------------------
   TIME STEP LENGTH 8.64000E+05  14400.      240.00      10.000     2.73785E-02
 STRESS PERIOD TIME 2.16000E+07 3.60000E+05  6000.0      250.00     0.68446    
         TOTAL TIME 2.16864E+07 3.61440E+05  6024.0      251.00     0.68720    


end timestep


start timestep kper="2" kstp="26" mode="normal"

 UBDSV1 SAVING           STO-SS ON UNIT   1042 AT TIME STEP     26, STRESS PERIOD      2
 UBDSV1 SAVING           STO-SY ON UNIT   1042 AT TIME STEP     26, STRESS PERIOD      2
 UBDSV1 SAVING     FLOW-JA-FACE ON UNIT   1042 AT TIME STEP     26, STRESS PERIOD      2
 UBDSV06 SAVING       DATA-SPDIS IN MODEL GWF              PACKAGE NPF             CONNECTED TO MODEL GWF              PACKAGE NPF              ON UNIT   1042 AT TIME STEP     26, STRESS PERIOD      2
 UBDSV06 SAVING              WEL IN MODEL GWF              PACKAGE GWF             CONNECTED TO MODEL GWF              PACKAGE WEL-1            ON UNIT   1042 AT TIME STEP     26, STRESS PERIOD      2
 UBDSV06 SAVING              API IN MODEL GWF              PACKAGE GWF             CONNECTED TO MODEL GWF              PACKAGE MAR              ON UNIT   1042 AT TIME STEP     26, STRESS PERIOD      2
 UBDSV06 SAVING              CHD IN MODEL GWF              PACKAGE GWF             CONNECTED TO MODEL GWF              PACKAGE CHD_0            ON UNIT   1042 AT TIME STEP     26, STRESS PERIOD      2

    CALCULATED INTERCELL FLOW FOR PERIOD 2 STEP 26
(1,1,1): (1,1,2) 2.190155E-03 (1,2,1) 2.729640E-03
(1,1,2): (1,1,1) -2.190155E-03 (1,1,3) 6.279978E-03 (1,2,2) 8.268306E-03
(1,1,3): (1,1,2) -6.279978E-03 (1,1,4) 1.254848E-02 (1,2,3) 2.525715E-02
(1,1,4): (1,1,3) -1.254848E-02 (1,1,5) 1.567127E-02 (1,2,4) 6.204360E-02
(1,1,5): (1,1,4) -1.567127E-02 (1,1,6) 6.485609E-03 (1,2,5) 0.111595
(1,1,6): (1,1,5) -6.485609E-03 (1,1,7) -6.475494E-03 (1,2,6) 0.131079
(1,1,7): (1,1,6) 6.475494E-03 (1,1,8) -1.562972E-02 (1,2,7) 0.111615
(1,1,8): (1,1,7) 1.562972E-02 (1,1,9) -1.236894E-02 (1,2,8) 6.214949E-02
(1,1,9): (1,1,8) 1.236894E-02 (1,1,10) -5.597401E-03 (1,2,9) 2.575755E-02
(1,1,10): (1,1,9) 5.597401E-03 (1,2,10) 1.037168E-02
(1,2,1): (1,1,1) -2.729640E-03 (1,2,2) 7.728791E-03 (1,3,1) 9.122153E-03
(1,2,2): (1,1,2) -8.268306E-03 (1,2,1) -7.728791E-03 (1,2,3) 2.326849E-02 (1,3,2) 2.914610E-02
(1,2,3): (1,1,3) -2.525715E-02 (1,2,2) -2.326849E-02 (1,2,4) 4.933026E-02 (1,3,3) 9.407844E-02
(1,2,4): (1,1,4) -6.204360E-02 (1,2,3) -4.933026E-02 (1,2,5) 6.519983E-02 (1,3,4) 0.245267
(1,2,5): (1,1,5) -0.111595 (1,2,4) -6.519983E-02 (1,2,6) 2.594905E-02 (1,3,5) 0.465911
(1,2,6): (1,1,6) -0.131079 (1,2,5) -2.594905E-02 (1,2,7) -2.591912E-02 (1,3,6) 0.546034
(1,2,7): (1,1,7) -0.111615 (1,2,6) 2.591912E-02 (1,2,8) -6.507219E-02 (1,3,7) 0.465973
(1,2,8): (1,1,8) -6.214949E-02 (1,2,7) 6.507219E-02 (1,2,9) -4.875602E-02 (1,3,8) 0.245601
(1,2,9): (1,1,9) -2.575755E-02 (1,2,8) 4.875602E-02 (1,2,10) -2.098254E-02 (1,3,9) 9.570425E-02
(1,2,10): (1,1,10) -1.037168E-02 (1,2,9) 2.098254E-02 (1,3,10) 3.626127E-02
(1,3,1): (1,2,1) -9.122153E-03 (1,3,2) 2.775246E-02 (1,4,1) 2.234494E-02
(1,3,2): (1,2,2) -2.914610E-02 (1,3,1) -2.775246E-02 (1,3,3) 8.819702E-02 (1,4,2) 7.666085E-02
(1,3,3): (1,2,3) -9.407844E-02 (1,3,2) -8.819702E-02 (1,3,4) 0.200452 (1,4,3) 0.267474
(1,3,4): (1,2,4) -0.245267 (1,3,3) -0.200452 (1,3,5) 0.285451 (1,4,4) 0.764165
(1,3,5): (1,2,5) -0.465911 (1,3,4) -0.285451 (1,3,6) 0.105726 (1,4,5) 1.59944
(1,3,6): (1,2,6) -0.546034 (1,3,5) -0.105726 (1,3,7) -0.105635 (1,4,6) 1.85085
(1,3,7): (1,2,7) -0.465973 (1,3,6) 0.105635 (1,3,8) -0.285051 (1,4,7) 1.59958
(1,3,8): (1,2,8) -0.245601 (1,3,7) 0.285051 (1,3,9) -0.198583 (1,4,8) 0.764928
(1,3,9): (1,2,9) -9.570425E-02 (1,3,8) 0.198583 (1,3,10) -8.041646E-02 (1,4,9) 0.271316
(1,3,10): (1,2,10) -3.626127E-02 (1,3,9) 8.041646E-02 (1,4,10) 9.434953E-02
(1,4,1): (1,3,1) -2.234494E-02 (1,4,2) 8.207130E-02 (1,5,1) 3.566659E-02
(1,4,2): (1,3,2) -7.666085E-02 (1,4,1) -8.207130E-02 (1,4,3) 0.279032 (1,5,2) 0.134798
(1,4,3): (1,3,3) -0.267474 (1,4,2) -0.279032 (1,4,4) 0.696817 (1,5,3) 0.528563
(1,4,4): (1,3,4) -0.764165 (1,4,3) -0.696817 (1,4,5) 1.11690 (1,5,4) 1.76633
(1,4,5): (1,3,5) -1.59944 (1,4,4) -1.11690 (1,4,6) 0.353633 (1,5,5) 4.55099
(1,4,6): (1,3,6) -1.85085 (1,4,5) -0.353633 (1,4,7) -0.353404 (1,5,6) 5.02599
(1,4,7): (1,3,7) -1.59958 (1,4,6) 0.353404 (1,4,8) -1.11587 (1,5,7) 4.55120
(1,4,8): (1,3,8) -0.764928 (1,4,7) 1.11587 (1,4,9) -0.691843 (1,5,8) 1.76746
(1,4,9): (1,3,9) -0.271316 (1,4,8) 0.691843 (1,4,10) -0.257359 (1,5,9) 0.534412
(1,4,10): (1,3,10) -9.434953E-02 (1,4,9) 0.257359 (1,5,10) 0.163512
(1,5,1): (1,4,1) -3.566659E-02 (1,5,2) 0.181248 (1,6,1) 1.499186E-02
(1,5,2): (1,4,2) -0.134798 (1,5,1) -0.181248 (1,5,3) 0.673355 (1,6,2) 7.202851E-02
(1,5,3): (1,4,3) -0.528563 (1,5,2) -0.673355 (1,5,4) 1.93656 (1,6,3) 0.388984
(1,5,4): (1,4,4) -1.76633 (1,5,3) -1.93656 (1,5,5) 3.88558 (1,6,4) 2.05485
(1,5,5): (1,4,5) -4.55099 (1,5,4) -3.88558 (1,5,6) 0.812404 (1,6,5) 10.7473
(1,5,6): (1,4,6) -5.02599 (1,5,5) -0.812404 (1,5,7) -0.811968 (1,6,6) 10.0135
(1,5,7): (1,4,7) -4.55120 (1,5,6) 0.811968 (1,5,8) -3.88359 (1,6,7) 10.7473
(1,5,8): (1,4,8) -1.76746 (1,5,7) 3.88359 (1,5,9) -1.92673 (1,6,8) 2.05524
(1,5,9): (1,4,9) -0.534412 (1,5,8) 1.92673 (1,5,10) -0.628601 (1,6,9) 0.391152
(1,5,10): (1,4,10) -0.163512 (1,5,9) 0.628601 (1,6,10) 8.444223E-02
(1,6,1): (1,5,1) -1.499186E-02 (1,6,2) 0.238379 (1,7,1) -6.266509E-02
(1,6,2): (1,5,2) -7.202851E-02 (1,6,1) -0.238379 (1,6,3) 0.992170 (1,7,2) -0.273765
(1,6,3): (1,5,3) -0.388984 (1,6,2) -0.992170 (1,6,4) 3.62608 (1,7,3) -1.26983
(1,6,4): (1,5,4) -2.05485 (1,6,3) -3.62608 (1,6,5) 12.7017 (1,7,4) -5.41760
(1,6,5): (1,5,5) -10.7473 (1,6,4) -12.7017 (1,6,6) 0.133417 (1,7,5) -21.8691
(1,6,6): (1,5,6) -10.0135 (1,6,5) -0.133417 (1,6,7) -0.132891 (1,7,6) -35.1702
(1,6,7): (1,5,7) -10.7473 (1,6,6) 0.132891 (1,6,8) -12.6992 (1,7,7) -21.8695
(1,6,8): (1,5,8) -2.05524 (1,6,7) 12.6992 (1,6,9) -3.61426 (1,7,8) -5.41930
(1,6,9): (1,5,9) -0.391152 (1,6,8) 3.61426 (1,6,10) -0.936938 (1,7,9) -1.27930
(1,6,10): (1,5,10) -8.444223E-02 (1,6,9) 0.936938 (1,7,10) -0.325487
(1,7,1): (1,6,1) 6.266509E-02 (1,7,2) 2.735370E-02 (1,8,1) -4.771931E-02
(1,7,2): (1,6,2) 0.273765 (1,7,1) -2.735370E-02 (1,7,3) -1.212328E-03 (1,8,2) -0.209288
(1,7,3): (1,6,3) 1.26983 (1,7,2) 1.212328E-03 (1,7,4) -0.456767 (1,8,3) -0.977114
(1,7,4): (1,6,4) 5.41760 (1,7,3) 0.456767 (1,7,5) -2.73843 (1,8,4) -4.17779
(1,7,5): (1,6,5) 21.8691 (1,7,4) 2.73843 (1,7,6) -10.9887 (1,8,5) -16.3523
(1,7,6): (1,6,6) 35.1702 (1,7,5) 10.9887 (1,7,7) 10.9890 (1,8,6) -60.4236
(1,7,7): (1,6,7) 21.8695 (1,7,6) -10.9890 (1,7,8) 2.73935 (1,8,7) -16.3525
(1,7,8): (1,6,8) 5.41930 (1,7,7) -2.73935 (1,7,9) 0.460485 (1,8,8) -4.17901
(1,7,9): (1,6,9) 1.27930 (1,7,8) -0.460485 (1,7,10) 1.370883E-02 (1,8,9) -0.984230
(1,7,10): (1,6,10) 0.325487 (1,7,9) -1.370883E-02 (1,8,10) -0.248611
(1,8,1): (1,7,1) 4.771931E-02 (1,8,2) -0.134101 (1,9,1) 4.222138E-02
(1,8,2): (1,7,2) 0.209288 (1,8,1) 0.134101 (1,8,3) -0.767442 (1,9,2) 0.187990
(1,8,3): (1,7,3) 0.977114 (1,8,2) 0.767442 (1,8,4) -3.64070 (1,9,3) 0.887216
(1,8,4): (1,7,4) 4.17779 (1,8,3) 3.64070 (1,8,5) -14.7295 (1,9,4) 3.82486
(1,8,5): (1,7,5) 16.3523 (1,8,4) 14.7295 (1,8,6) -52.0810 (1,9,5) 15.1356
(1,8,6): (1,7,6) 60.4236 (1,8,5) 52.0810 (1,8,7) 52.0811 (1,9,6) 58.3951
(1,8,7): (1,7,7) 16.3525 (1,8,6) -52.0811 (1,8,8) 14.7294 (1,9,7) 15.1357
(1,8,8): (1,7,8) 4.17901 (1,8,7) -14.7294 (1,8,9) 3.63845 (1,9,8) 3.82590
(1,8,9): (1,7,9) 0.984230 (1,8,8) -3.63845 (1,8,10) 0.747602 (1,9,9) 0.893425
(1,8,10): (1,7,10) 0.248611 (1,8,9) -0.747602 (1,9,10) 0.222875
(1,9,1): (1,8,1) -4.222138E-02 (1,9,2) 1.159046E-02 (1,10,1) 5.875879E-02
(1,9,2): (1,8,2) -0.187990 (1,9,1) -1.159046E-02 (1,9,3) -6.904843E-02 (1,10,2) 0.255074
(1,9,3): (1,8,3) -0.887216 (1,9,2) 6.904843E-02 (1,9,4) -0.708369 (1,10,3) 1.16207
(1,9,4): (1,8,4) -3.82486 (1,9,3) 0.708369 (1,9,5) -3.46247 (1,10,4) 4.75680
(1,9,5): (1,8,5) -15.1356 (1,9,4) 3.46247 (1,9,6) -11.0862 (1,10,5) 17.6626
(1,9,6): (1,8,6) -58.3951 (1,9,5) 11.0862 (1,9,7) 11.0864 (1,10,6) 30.0419
(1,9,7): (1,8,7) -15.1357 (1,9,6) -11.0864 (1,9,8) 3.46325 (1,10,7) 17.6629
(1,9,8): (1,8,8) -3.82590 (1,9,7) -3.46325 (1,9,9) 0.711368 (1,10,8) 4.75837
(1,9,9): (1,8,9) -0.893425 (1,9,8) -0.711368 (1,9,10) 7.802295E-02 (1,10,9) 1.17093
(1,9,10): (1,8,10) -0.222875 (1,9,9) -7.802295E-02 (1,10,10) 0.303558
(1,10,1): (1,9,1) -5.875879E-02 (1,10,2) 0.207814 (1,11,1) -1.218200E-02
(1,10,2): (1,9,2) -0.255074 (1,10,1) -0.207814 (1,10,3) 0.835098 (1,11,2) -5.712420E-02
(1,10,3): (1,9,3) -1.16207 (1,10,2) -0.835098 (1,10,4) 2.82762 (1,11,3) -0.295580
(1,10,4): (1,9,4) -4.75680 (1,10,3) -2.82762 (1,10,5) 8.65742 (1,11,4) -1.45420
(1,10,5): (1,9,5) -17.6626 (1,10,4) -8.65742 (1,10,6) -0.434156 (1,11,5) -6.94027
(1,10,6): (1,9,6) -30.0419 (1,10,5) 0.434156 (1,10,7) 0.434614 (1,11,6) -5.84067
(1,10,7): (1,9,7) -17.6629 (1,10,6) -0.434614 (1,10,8) -8.65528 (1,11,7) -6.94034
(1,10,8): (1,9,8) -4.75837 (1,10,7) 8.65528 (1,10,9) -2.81711 (1,11,8) -1.45451
(1,10,9): (1,9,9) -1.17093 (1,10,8) 2.81711 (1,10,10) -0.786151 (1,11,9) -0.297353
(1,10,10): (1,9,10) -0.303558 (1,10,9) 0.786151 (1,11,10) -6.718043E-02
(1,11,1): (1,10,1) 1.218200E-02 (1,11,2) 0.162804 (1,12,1) -3.212339E-02
(1,11,2): (1,10,2) 5.712420E-02 (1,11,1) -0.162804 (1,11,3) 0.595386 (1,12,2) -0.120273
(1,11,3): (1,10,3) 0.295580 (1,11,2) -0.595386 (1,11,4) 1.65435 (1,12,3) -0.463418
(1,11,4): (1,10,4) 1.45420 (1,11,3) -1.65435 (1,11,5) 3.09720 (1,12,4) -1.49724
(1,11,5): (1,10,5) 6.94027 (1,11,4) -3.09720 (1,11,6) 0.612399 (1,12,5) -3.64263
(1,11,6): (1,10,6) 5.84067 (1,11,5) -0.612399 (1,11,7) -0.612009 (1,12,6) -3.96285
(1,11,7): (1,10,7) 6.94034 (1,11,6) 0.612009 (1,11,8) -3.09540 (1,12,7) -3.64282
(1,11,8): (1,10,8) 1.45451 (1,11,7) 3.09540 (1,11,9) -1.64543 (1,12,8) -1.49825
(1,11,9): (1,10,9) 0.297353 (1,11,8) 1.64543 (1,11,10) -0.554880 (1,12,9) -0.468695
(1,11,10): (1,10,10) 6.718043E-02 (1,11,9) 0.554880 (1,12,10) -0.146102
(1,12,1): (1,11,1) 3.212339E-02 (1,12,2) 7.461703E-02 (1,13,1) -2.037683E-02
(1,12,2): (1,11,2) 0.120273 (1,12,1) -7.461703E-02 (1,12,3) 0.251798 (1,13,2) -6.960906E-02
(1,12,3): (1,11,3) 0.463418 (1,12,2) -0.251798 (1,12,4) 0.618987 (1,13,3) -0.241028
(1,12,4): (1,11,4) 1.49724 (1,12,3) -0.618987 (1,12,5) 0.962140 (1,13,4) -0.679003
(1,12,5): (1,11,5) 3.64263 (1,12,4) -0.962140 (1,12,6) 0.301138 (1,13,5) -1.38946
(1,12,6): (1,11,6) 3.96285 (1,12,5) -0.301138 (1,12,7) -0.300930 (1,13,6) -1.59950
(1,12,7): (1,11,7) 3.64282 (1,12,6) 0.300930 (1,12,8) -0.961199 (1,13,7) -1.38959
(1,12,8): (1,11,8) 1.49825 (1,12,7) 0.961199 (1,12,9) -0.614440 (1,13,8) -0.679698
(1,12,9): (1,11,9) 0.468695 (1,12,8) 0.614440 (1,12,10) -0.232015 (1,13,9) -0.244534
(1,12,10): (1,11,10) 0.146102 (1,12,9) 0.232015 (1,13,10) -8.572803E-02
(1,13,1): (1,12,1) 2.037683E-02 (1,13,2) 2.538235E-02 (1,14,1) -8.359836E-03
(1,13,2): (1,12,2) 6.960906E-02 (1,13,1) -2.538235E-02 (1,13,3) 8.036032E-02 (1,14,2) -2.665060E-02
(1,13,3): (1,12,3) 0.241028 (1,13,2) -8.036032E-02 (1,13,4) 0.181269 (1,14,3) -8.570742E-02
(1,13,4): (1,12,4) 0.679003 (1,13,3) -0.181269 (1,13,5) 0.254579 (1,14,4) -0.222036
(1,13,5): (1,12,5) 1.38946 (1,13,4) -0.254579 (1,13,6) 9.365768E-02 (1,14,5) -0.417859
(1,13,6): (1,12,6) 1.59950 (1,13,5) -9.365768E-02 (1,13,7) -9.357424E-02 (1,14,6) -0.488397
(1,13,7): (1,12,7) 1.38959 (1,13,6) 9.357424E-02 (1,13,8) -0.254212 (1,14,7) -0.417915
(1,13,8): (1,12,8) 0.679698 (1,13,7) 0.254212 (1,13,9) -0.179554 (1,14,8) -0.222341
(1,13,9): (1,12,9) 0.244534 (1,13,8) 0.179554 (1,13,10) -7.322831E-02 (1,14,9) -8.719795E-02
(1,13,10): (1,12,10) 8.572803E-02 (1,13,9) 7.322831E-02 (1,14,10) -3.316835E-02
(1,14,1): (1,13,1) 8.359836E-03 (1,14,2) 7.091821E-03 (1,15,1) -2.507611E-03
(1,14,2): (1,13,2) 2.665060E-02 (1,14,1) -7.091821E-03 (1,14,3) 2.130664E-02 (1,15,2) -7.585620E-03
(1,14,3): (1,13,3) 8.570742E-02 (1,14,2) -2.130664E-02 (1,14,4) 4.499573E-02 (1,15,3) -2.312506E-02
(1,14,4): (1,13,4) 0.222036 (1,14,3) -4.499573E-02 (1,14,5) 5.907164E-02 (1,15,4) -5.662457E-02
(1,14,5): (1,13,5) 0.417859 (1,14,4) -5.907164E-02 (1,14,6) 2.339226E-02 (1,15,5) -0.101403
(1,14,6): (1,13,6) 0.488397 (1,14,5) -2.339226E-02 (1,14,7) -2.336475E-02 (1,15,6) -0.118910
(1,14,7): (1,13,7) 0.417915 (1,14,6) 2.336475E-02 (1,14,8) -5.895426E-02 (1,15,7) -0.101421
(1,14,8): (1,13,8) 0.222341 (1,14,7) 5.895426E-02 (1,14,9) -4.446770E-02 (1,15,8) -5.672186E-02
(1,14,9): (1,13,9) 8.719795E-02 (1,14,8) 4.446770E-02 (1,14,10) -1.920623E-02 (1,15,9) -2.358489E-02
(1,14,10): (1,13,10) 3.316835E-02 (1,14,9) 1.920623E-02 (1,15,10) -9.517359E-03
(1,15,1): (1,14,1) 2.507611E-03 (1,15,2) 2.013837E-03
(1,15,2): (1,14,2) 7.585620E-03 (1,15,1) -2.013837E-03 (1,15,3) 5.767489E-03
(1,15,3): (1,14,3) 2.312506E-02 (1,15,2) -5.767489E-03 (1,15,4) 1.150010E-02
(1,15,4): (1,14,4) 5.662457E-02 (1,15,3) -1.150010E-02 (1,15,5) 1.431229E-02
(1,15,5): (1,14,5) 0.101403 (1,15,4) -1.431229E-02 (1,15,6) 5.901411E-03
(1,15,6): (1,14,6) 0.118910 (1,15,5) -5.901411E-03 (1,15,7) -5.892095E-03
(1,15,7): (1,14,7) 0.101421 (1,15,6) 5.892095E-03 (1,15,8) -1.427401E-02
(1,15,8): (1,14,8) 5.672186E-02 (1,15,7) 1.427401E-02 (1,15,9) -1.133478E-02
(1,15,9): (1,14,9) 2.358489E-02 (1,15,8) 1.133478E-02 (1,15,10) -5.139308E-03
(1,15,10): (1,14,10) 9.517359E-03 (1,15,9) 5.139308E-03

 WEL PACKAGE (WEL-1) FLOW RATES   PERIOD      2   STEP       26
 ----------------------------------------------------------------------------------------
   NUMBER   CELLID                    RATE       NAME                                    
 ----------------------------------------------------------------------------------------
     1      (1,8,6)              -225.08707      WEL                                     
 ----------------------------------------------------------------------------------------




 API PACKAGE (MAR) FLOW RATES   PERIOD      2   STEP       26
 -----------------------------------------------
   NUMBER   CELLID                    RATE      
 -----------------------------------------------
     1      (1,6,5)               46.666667     
     2      (1,6,6)               46.666667     
     3      (1,6,7)               46.666667     
     4      (1,10,5)              28.362356     
     5      (1,10,6)              28.362356     
     6      (1,10,7)              28.362356     
 -----------------------------------------------



1
  HEAD IN LAYER   1 AT END OF TIME STEP  26 IN STRESS PERIOD    2
  ---------------------------------------------------------------------------

            1           2           3           4           5           6           7           8           9          10
 ........................................................................................................................
   1   1.2085E-04  3.3986E-04  9.6779E-04  2.2224E-03  3.7889E-03  4.4372E-03  3.7899E-03  2.2275E-03  9.9091E-04  4.3122E-04
   2   3.9380E-04  1.1666E-03  3.4926E-03  8.4215E-03  1.4932E-02  1.7522E-02  1.4935E-02  8.4372E-03  3.5657E-03  1.4682E-03
   3   1.3059E-03  4.0800E-03  1.2888E-02  3.2868E-02  6.1239E-02  7.1737E-02  6.1248E-02  3.2917E-02  1.3124E-02  5.0925E-03
   4   3.5396E-03  1.1737E-02  3.9530E-02  0.1085      0.2178      0.2523      0.2178      0.1086      4.0147E-02  1.4514E-02
   5   7.1037E-03  2.5183E-02  9.1905E-02  0.2803      0.6453      0.7211      0.6453      0.2805      9.3095E-02  3.0815E-02
   6   8.6016E-03  3.2363E-02  0.1303      0.4764       1.574       1.585       1.574      0.4767      0.1317      3.9226E-02
   7   2.3405E-03  5.0745E-03  4.9533E-03 -4.0701E-02 -0.3157      -1.450     -0.3156     -4.0589E-02  5.4345E-03  6.8044E-03
   8  -2.4303E-03 -1.5844E-02 -9.2710E-02 -0.4602      -2.004      -8.518      -2.004     -0.4602     -9.2935E-02 -1.8040E-02
   9   1.7911E-03  2.9498E-03 -3.9530E-03 -7.4818E-02 -0.4237      -1.581     -0.4237     -7.4723E-02 -3.5608E-03  4.2382E-03
  10   7.6625E-03  2.8385E-02  0.1110      0.3833       1.159       1.120       1.159      0.3835      0.1122      3.4490E-02
  11   6.4452E-03  2.2689E-02  8.1745E-02  0.2433      0.5372      0.5950      0.5372      0.2435      8.2827E-02  2.7795E-02
  12   3.2349E-03  1.0689E-02  3.5779E-02  9.7082E-02  0.1915      0.2210      0.1915      9.7195E-02  3.6343E-02  1.3225E-02
  13   1.1979E-03  3.7352E-03  1.1762E-02  2.9835E-02  5.5153E-02  6.4459E-02  5.5161E-02  2.9880E-02  1.1978E-02  4.6636E-03
  14   3.6201E-04  1.0711E-03  3.2011E-03  7.6972E-03  1.3596E-02  1.5932E-02  1.3599E-02  7.7117E-03  3.2683E-03  1.3483E-03
  15   1.1125E-04  3.1263E-04  8.8933E-04  2.0391E-03  3.4698E-03  4.0597E-03  3.4708E-03  2.0439E-03  9.1062E-04  3.9673E-04

 HEAD WILL BE SAVED ON UNIT 1043 AT END OF TIME STEP   26, STRESS PERIOD    2


  VOLUME BUDGET FOR ENTIRE MODEL AT END OF TIME STEP   26, STRESS PERIOD   2
  ---------------------------------------------------------------------------------------------------

     CUMULATIVE VOLUME      L**3       RATES FOR THIS TIME STEP      L**3/T          PACKAGE NAME    
     ------------------                 ------------------------                     ----------------

           IN:                                      IN:
           ---                                      ---
              STO-SS =          14.9389                STO-SS =       3.4028E-02     STORAGE                          
              STO-SY =       38344.0693                STO-SY =          72.5057     STORAGE                          
                 WEL =           0.0000                   WEL =           0.0000     WEL-1                            
                 API =       67216.8531                   API =         225.0871     MAR                              
                 CHD =       2.8247E-08                   CHD =           0.0000     CHD_0                            

            TOTAL IN =      105575.8613              TOTAL IN =         297.6268

          OUT:                                     OUT:
          ----                                     ----
              STO-SS =          20.0053                STO-SS =       3.7354E-02     STORAGE                          
              STO-SY =       38339.0030                STO-SY =          72.5024     STORAGE                          
                 WEL =       67216.8531                   WEL =         225.0871     WEL-1                            
                 API =           0.0000                   API =           0.0000     MAR                              
                 CHD =       3.0388E-08                   CHD =           0.0000     CHD_0                            

           TOTAL OUT =      105575.8613             TOTAL OUT =         297.6268

            IN - OUT =       2.2777E-07              IN - OUT =      -4.0525E-09

 PERCENT DISCREPANCY =           0.00     PERCENT DISCREPANCY =          -0.00




         TIME SUMMARY AT END OF TIME STEP   26 IN STRESS PERIOD    2
                    SECONDS     MINUTES      HOURS       DAYS        YEARS
                    -----------------------------------------------------------
   TIME STEP LENGTH 8.64000E+05  14400.      240.00      10.000     2.73785E-02
 STRESS PERIOD TIME 2.24640E+07 3.74400E+05  6240.0      260.00     0.71184    
         TOTAL TIME 2.25504E+07 3.75840E+05  6264.0      261.00     0.71458    


end timestep


start timestep kper="2" kstp="27" mode="normal"

 UBDSV1 SAVING           STO-SS ON UNIT   1042 AT TIME STEP     27, STRESS PERIOD      2
 UBDSV1 SAVING           STO-SY ON UNIT   1042 AT TIME STEP     27, STRESS PERIOD      2
 UBDSV1 SAVING     FLOW-JA-FACE ON UNIT   1042 AT TIME STEP     27, STRESS PERIOD      2
 UBDSV06 SAVING       DATA-SPDIS IN MODEL GWF              PACKAGE NPF             CONNECTED TO MODEL GWF              PACKAGE NPF              ON UNIT   1042 AT TIME STEP     27, STRESS PERIOD      2
 UBDSV06 SAVING              WEL IN MODEL GWF              PACKAGE GWF             CONNECTED TO MODEL GWF              PACKAGE WEL-1            ON UNIT   1042 AT TIME STEP     27, STRESS PERIOD      2
 UBDSV06 SAVING              API IN MODEL GWF              PACKAGE GWF             CONNECTED TO MODEL GWF              PACKAGE MAR              ON UNIT   1042 AT TIME STEP     27, STRESS PERIOD      2
 UBDSV06 SAVING              CHD IN MODEL GWF              PACKAGE GWF             CONNECTED TO MODEL GWF              PACKAGE CHD_0            ON UNIT   1042 AT TIME STEP     27, STRESS PERIOD      2

    CALCULATED INTERCELL FLOW FOR PERIOD 2 STEP 27
(1,1,1): (1,1,2) 2.613170E-03 (1,2,1) 3.251624E-03
(1,1,2): (1,1,1) -2.613170E-03 (1,1,3) 7.348084E-03 (1,2,2) 9.593772E-03
(1,1,3): (1,1,2) -7.348084E-03 (1,1,4) 1.438287E-02 (1,2,3) 2.866203E-02
(1,1,4): (1,1,3) -1.438287E-02 (1,1,5) 1.766853E-02 (1,2,4) 6.909888E-02
(1,1,5): (1,1,4) -1.766853E-02 (1,1,6) 7.327547E-03 (1,2,5) 0.122656
(1,1,6): (1,1,5) -7.327547E-03 (1,1,7) -7.314167E-03 (1,2,6) 0.143787
(1,1,7): (1,1,6) 7.314167E-03 (1,1,8) -1.761508E-02 (1,2,7) 0.122681
(1,1,8): (1,1,7) 1.761508E-02 (1,1,9) -1.415769E-02 (1,2,8) 6.923038E-02
(1,1,9): (1,1,8) 1.415769E-02 (1,1,10) -6.513050E-03 (1,2,9) 2.926848E-02
(1,1,10): (1,1,9) 6.513050E-03 (1,2,10) 1.208213E-02
(1,2,1): (1,1,1) -3.251624E-03 (1,2,2) 8.955278E-03 (1,3,1) 1.060510E-02
(1,2,2): (1,1,2) -9.593772E-03 (1,2,1) -8.955278E-03 (1,2,3) 2.641591E-02 (1,3,2) 3.297740E-02
(1,2,3): (1,1,3) -2.866203E-02 (1,2,2) -2.641591E-02 (1,2,4) 5.481396E-02 (1,3,3) 0.104039
(1,2,4): (1,1,4) -6.909888E-02 (1,2,3) -5.481396E-02 (1,2,5) 7.119802E-02 (1,3,4) 0.266010
(1,2,5): (1,1,5) -0.122656 (1,2,4) -7.119802E-02 (1,2,6) 2.843432E-02 (1,3,5) 0.498323
(1,2,6): (1,1,6) -0.143787 (1,2,5) -2.843432E-02 (1,2,7) -2.839574E-02 (1,3,6) 0.583055
(1,2,7): (1,1,7) -0.122681 (1,2,6) 2.839574E-02 (1,2,8) -7.103824E-02 (1,3,7) 0.498400
(1,2,8): (1,1,8) -6.923038E-02 (1,2,7) 7.103824E-02 (1,2,9) -5.411356E-02 (1,3,8) 0.266415
(1,2,9): (1,1,9) -2.926848E-02 (1,2,8) 5.411356E-02 (1,2,10) -2.369844E-02 (1,3,9) 0.105964
(1,2,10): (1,1,10) -1.208213E-02 (1,2,9) 2.369844E-02 (1,3,10) 4.119369E-02
(1,3,1): (1,2,1) -1.060510E-02 (1,3,2) 3.132721E-02 (1,4,1) 2.525180E-02
(1,3,2): (1,2,2) -3.297740E-02 (1,3,1) -3.132721E-02 (1,3,3) 9.747279E-02 (1,4,2) 8.427067E-02
(1,3,3): (1,2,3) -0.104039 (1,3,2) -9.747279E-02 (1,3,4) 0.216706 (1,4,3) 0.287321
(1,3,4): (1,2,4) -0.266010 (1,3,3) -0.216706 (1,3,5) 0.303065 (1,4,4) 0.804987
(1,3,5): (1,2,5) -0.498323 (1,3,4) -0.303065 (1,3,6) 0.112777 (1,4,5) 1.66135
(1,3,6): (1,2,6) -0.583055 (1,3,5) -0.112777 (1,3,7) -0.112662 (1,4,6) 1.92007
(1,3,7): (1,2,7) -0.498400 (1,3,6) 0.112662 (1,3,8) -0.302576 (1,4,7) 1.66152
(1,3,8): (1,2,8) -0.266415 (1,3,7) 0.302576 (1,3,9) -0.214482 (1,4,8) 0.805889
(1,3,9): (1,2,9) -0.105964 (1,3,8) 0.214482 (1,3,10) -8.845735E-02 (1,4,9) 0.291747
(1,3,10): (1,2,10) -4.119369E-02 (1,3,9) 8.845735E-02 (1,4,10) 0.104132
(1,4,1): (1,3,1) -2.525180E-02 (1,4,2) 9.034966E-02 (1,5,1) 3.899552E-02
(1,4,2): (1,3,2) -8.427067E-02 (1,4,1) -9.034966E-02 (1,4,3) 0.300549 (1,5,2) 0.143378
(1,4,3): (1,3,3) -0.287321 (1,4,2) -0.300549 (1,4,4) 0.734014 (1,5,3) 0.549958
(1,4,4): (1,3,4) -0.804987 (1,4,3) -0.734014 (1,4,5) 1.15533 (1,5,4) 1.80590
(1,4,5): (1,3,5) -1.66135 (1,4,4) -1.15533 (1,4,6) 0.367776 (1,5,5) 4.59993
(1,4,6): (1,3,6) -1.92007 (1,4,5) -0.367776 (1,4,7) -0.367493 (1,5,6) 5.07395
(1,4,7): (1,3,7) -1.66152 (1,4,6) 0.367493 (1,4,8) -1.15410 (1,5,7) 4.60018
(1,4,8): (1,3,8) -0.805889 (1,4,7) 1.15410 (1,4,9) -0.728236 (1,5,8) 1.80719
(1,4,9): (1,3,9) -0.291747 (1,4,8) 0.728236 (1,4,10) -0.276044 (1,5,9) 0.556483
(1,4,10): (1,3,10) -0.104132 (1,4,9) 0.276044 (1,5,10) 0.174579
(1,5,1): (1,4,1) -3.899552E-02 (1,5,2) 0.194785 (1,6,1) 1.480215E-02
(1,5,2): (1,4,2) -0.143378 (1,5,1) -0.194785 (1,5,3) 0.707758 (1,6,2) 7.033522E-02
(1,5,3): (1,4,3) -0.549958 (1,5,2) -0.707758 (1,5,4) 1.99215 (1,6,3) 0.379885
(1,5,4): (1,4,4) -1.80590 (1,5,3) -1.99215 (1,5,5) 3.93335 (1,6,4) 2.02040
(1,5,5): (1,4,5) -4.59993 (1,5,4) -3.93335 (1,5,6) 0.825553 (1,6,5) 10.6591
(1,5,6): (1,4,6) -5.07395 (1,5,5) -0.825553 (1,5,7) -0.825027 (1,6,6) 9.89861
(1,5,7): (1,4,7) -4.60018 (1,5,6) 0.825027 (1,5,8) -3.93102 (1,6,7) 10.6593
(1,5,8): (1,4,8) -1.80719 (1,5,7) 3.93102 (1,5,9) -1.98098 (1,6,8) 2.02079
(1,5,9): (1,4,9) -0.556483 (1,5,8) 1.98098 (1,5,10) -0.658328 (1,6,9) 0.382052
(1,5,10): (1,4,10) -0.174579 (1,5,9) 0.658328 (1,6,10) 8.253611E-02
(1,6,1): (1,5,1) -1.480215E-02 (1,6,2) 0.250417 (1,7,1) -6.884109E-02
(1,6,2): (1,5,2) -7.033522E-02 (1,6,1) -0.250417 (1,6,3) 1.01923 (1,7,2) -0.292604
(1,6,3): (1,5,3) -0.379885 (1,6,2) -1.01923 (1,6,4) 3.65689 (1,7,3) -1.32664
(1,6,4): (1,5,4) -2.02040 (1,6,3) -3.65689 (1,6,5) 12.7004 (1,7,4) -5.55246
(1,6,5): (1,5,5) -10.6591 (1,6,4) -12.7004 (1,6,6) 0.121067 (1,7,5) -22.1052
(1,6,6): (1,5,6) -9.89861 (1,6,5) -0.121067 (1,6,7) -0.120443 (1,7,6) -35.4179
(1,6,7): (1,5,7) -10.6593 (1,6,6) 0.120443 (1,6,8) -12.6976 (1,7,7) -22.1056
(1,6,8): (1,5,8) -2.02079 (1,6,7) 12.6976 (1,6,9) -3.64372 (1,7,8) -5.55442
(1,6,9): (1,5,9) -0.382052 (1,6,8) 3.64372 (1,6,10) -0.959523 (1,7,9) -1.33725
(1,6,10): (1,5,10) -8.253611E-02 (1,6,9) 0.959523 (1,7,10) -0.349126
(1,7,1): (1,6,1) 6.884109E-02 (1,7,2) 2.674824E-02 (1,8,1) -5.217639E-02
(1,7,2): (1,6,2) 0.292604 (1,7,1) -2.674824E-02 (1,7,3) -1.171944E-02 (1,8,2) -0.222841
(1,7,3): (1,6,3) 1.32664 (1,7,2) 1.171944E-02 (1,7,4) -0.499331 (1,8,3) -1.01787
(1,7,4): (1,6,4) 5.55246 (1,7,3) 0.499331 (1,7,5) -2.81211 (1,8,4) -4.27071
(1,7,5): (1,6,5) 22.1052 (1,7,4) 2.81211 (1,7,6) -10.9906 (1,8,5) -16.4673
(1,7,6): (1,6,6) 35.4179 (1,7,5) 10.9906 (1,7,7) 10.9909 (1,8,6) -60.2773
(1,7,7): (1,6,7) 22.1056 (1,7,6) -10.9909 (1,7,8) 2.81317 (1,8,7) -16.4675
(1,7,8): (1,6,8) 5.55442 (1,7,7) -2.81317 (1,7,9) 0.503463 (1,8,8) -4.27211
(1,7,9): (1,6,9) 1.33725 (1,7,8) -0.503463 (1,7,10) 2.498904E-02 (1,8,9) -1.02580
(1,7,10): (1,6,10) 0.349126 (1,7,9) -2.498904E-02 (1,8,10) -0.265612
(1,8,1): (1,7,1) 5.217639E-02 (1,8,2) -0.143789 (1,9,1) 4.588239E-02
(1,8,2): (1,7,2) 0.222841 (1,8,1) 0.143789 (1,8,3) -0.805069 (1,9,2) 0.198752
(1,8,3): (1,7,3) 1.01787 (1,8,2) 0.805069 (1,8,4) -3.73521 (1,9,3) 0.916544
(1,8,4): (1,7,4) 4.27071 (1,8,3) 3.73521 (1,8,5) -14.8221 (1,9,4) 3.87378
(1,8,5): (1,7,5) 16.4673 (1,8,4) 14.8221 (1,8,6) -51.7657 (1,9,5) 15.1138
(1,8,6): (1,7,6) 60.2773 (1,8,5) 51.7657 (1,8,7) 51.7658 (1,9,6) 58.0202
(1,8,7): (1,7,7) 16.4675 (1,8,6) -51.7658 (1,8,8) 14.8219 (1,9,7) 15.1141
(1,8,8): (1,7,8) 4.27211 (1,8,7) -14.8219 (1,8,9) 3.73272 (1,9,8) 3.87497
(1,8,9): (1,7,9) 1.02580 (1,8,8) -3.73272 (1,8,10) 0.783352 (1,9,9) 0.923427
(1,8,10): (1,7,10) 0.265612 (1,8,9) -0.783352 (1,9,10) 0.236461
(1,9,1): (1,8,1) -4.588239E-02 (1,9,2) 8.997756E-03 (1,10,1) 6.438594E-02
(1,9,2): (1,8,2) -0.198752 (1,9,1) -8.997756E-03 (1,9,3) -8.807187E-02 (1,10,2) 0.271460
(1,9,3): (1,8,3) -0.916544 (1,9,2) 8.807187E-02 (1,9,4) -0.781994 (1,10,3) 1.20554
(1,9,4): (1,8,4) -3.87378 (1,9,3) 0.781994 (1,9,5) -3.61331 (1,10,4) 4.82319
(1,9,5): (1,8,5) -15.1138 (1,9,4) 3.61331 (1,9,6) -11.1005 (1,10,5) 17.6093
(1,9,6): (1,8,6) -58.0202 (1,9,5) 11.1005 (1,9,7) 11.1008 (1,10,6) 29.9225
(1,9,7): (1,8,7) -15.1141 (1,9,6) -11.1008 (1,9,8) 3.61420 (1,10,7) 17.6096
(1,9,8): (1,8,8) -3.87497 (1,9,7) -3.61420 (1,9,9) 0.785297 (1,10,8) 4.82498
(1,9,9): (1,8,9) -0.923427 (1,9,8) -0.785297 (1,9,10) 9.734251E-02 (1,10,9) 1.21545
(1,9,10): (1,8,10) -0.236461 (1,9,9) -9.734251E-02 (1,10,10) 0.324298
(1,10,1): (1,9,1) -6.438594E-02 (1,10,2) 0.215958 (1,11,1) -1.164722E-02
(1,10,2): (1,9,2) -0.271460 (1,10,1) -0.215958 (1,10,3) 0.842777 (1,11,2) -5.358591E-02
(1,10,3): (1,9,3) -1.20554 (1,10,2) -0.842777 (1,10,4) 2.77357 (1,11,3) -0.275233
(1,10,4): (1,9,4) -4.82319 (1,10,3) -2.77357 (1,10,5) 8.37946 (1,11,4) -1.35945
(1,10,5): (1,9,5) -17.6093 (1,10,4) -8.37946 (1,10,6) -0.503506 (1,11,5) -6.60362
(1,10,6): (1,9,6) -29.9225 (1,10,5) 0.503506 (1,10,7) 0.504046 (1,11,6) -5.44567
(1,10,7): (1,9,7) -17.6096 (1,10,6) -0.504046 (1,10,8) -8.37702 (1,11,7) -6.60370
(1,10,8): (1,9,8) -4.82498 (1,10,7) 8.37702 (1,10,9) -2.76192 (1,11,8) -1.35976
(1,10,9): (1,9,9) -1.21545 (1,10,8) 2.76192 (1,10,10) -0.790206 (1,11,9) -0.276954
(1,10,10): (1,9,10) -0.324298 (1,10,9) 0.790206 (1,11,10) -6.314270E-02
(1,11,1): (1,10,1) 1.164722E-02 (1,11,2) 0.173951 (1,12,1) -3.496513E-02
(1,11,2): (1,10,2) 5.358591E-02 (1,11,1) -0.173951 (1,11,3) 0.619903 (1,12,2) -0.127002
(1,11,3): (1,10,3) 0.275233 (1,11,2) -0.619903 (1,11,4) 1.67522 (1,12,3) -0.476630
(1,11,4): (1,10,4) 1.35945 (1,11,3) -1.67522 (1,11,5) 3.06157 (1,12,4) -1.50388
(1,11,5): (1,10,5) 6.60362 (1,11,4) -3.06157 (1,11,6) 0.601775 (1,12,5) -3.59377
(1,11,6): (1,10,6) 5.44567 (1,11,5) -0.601775 (1,11,7) -0.601306 (1,12,6) -3.89504
(1,11,7): (1,10,7) 6.60370 (1,11,6) 0.601306 (1,11,8) -3.05947 (1,12,7) -3.59399
(1,11,8): (1,10,8) 1.35976 (1,11,7) 3.05947 (1,11,9) -1.66512 (1,12,8) -1.50503
(1,11,9): (1,10,9) 0.276954 (1,11,8) 1.66512 (1,11,10) -0.575324 (1,12,9) -0.482495
(1,11,10): (1,10,10) 6.314270E-02 (1,11,9) 0.575324 (1,12,10) -0.154931
(1,12,1): (1,11,1) 3.496513E-02 (1,12,2) 8.187118E-02 (1,13,1) -2.297711E-02
(1,12,2): (1,11,2) 0.127002 (1,12,1) -8.187118E-02 (1,12,3) 0.269784 (1,13,2) -7.624994E-02
(1,12,3): (1,11,3) 0.476630 (1,12,2) -0.269784 (1,12,4) 0.646310 (1,13,3) -0.257467
(1,12,4): (1,11,4) 1.50388 (1,12,3) -0.646310 (1,12,5) 0.981485 (1,13,4) -0.709042
(1,12,5): (1,11,5) 3.59377 (1,12,4) -0.981485 (1,12,6) 0.308766 (1,13,5) -1.42532
(1,12,6): (1,11,6) 3.89504 (1,12,5) -0.308766 (1,12,7) -0.308510 (1,13,6) -1.63754
(1,12,7): (1,11,7) 3.59399 (1,12,6) 0.308510 (1,12,8) -0.980363 (1,13,7) -1.42547
(1,12,8): (1,11,8) 1.50503 (1,12,7) 0.980363 (1,12,9) -0.641035 (1,13,8) -0.709863
(1,12,9): (1,11,9) 0.482495 (1,12,8) 0.641035 (1,12,10) -0.247462 (1,13,9) -0.261499
(1,12,10): (1,11,10) 0.154931 (1,12,9) 0.247462 (1,13,10) -9.430473E-02
(1,13,1): (1,12,1) 2.297711E-02 (1,13,2) 2.859536E-02 (1,14,1) -9.706379E-03
(1,13,2): (1,12,2) 7.624994E-02 (1,13,1) -2.859536E-02 (1,13,3) 8.854437E-02 (1,14,2) -3.009483E-02
(1,13,3): (1,12,3) 0.257467 (1,13,2) -8.854437E-02 (1,13,4) 0.195011 (1,14,3) -9.449709E-02
(1,13,4): (1,12,4) 0.709042 (1,13,3) -0.195011 (1,13,5) 0.268238 (1,14,4) -0.239712
(1,13,5): (1,12,5) 1.42532 (1,13,4) -0.268238 (1,13,6) 9.918758E-02 (1,14,5) -0.444063
(1,13,6): (1,12,6) 1.63754 (1,13,5) -9.918758E-02 (1,13,7) -9.908264E-02 (1,14,6) -0.518019
(1,13,7): (1,12,7) 1.42547 (1,13,6) 9.908264E-02 (1,13,8) -0.267789 (1,14,7) -0.444133
(1,13,8): (1,12,8) 0.709863 (1,13,7) 0.267789 (1,13,9) -0.192973 (1,14,8) -0.240083
(1,13,9): (1,12,9) 0.261499 (1,13,8) 0.192973 (1,13,10) -8.029112E-02 (1,14,9) -9.625997E-02
(1,13,10): (1,12,10) 9.430473E-02 (1,13,9) 8.029112E-02 (1,14,10) -3.761064E-02
(1,14,1): (1,13,1) 9.706379E-03 (1,14,2) 8.207217E-03 (1,15,1) -2.984585E-03
(1,14,2): (1,13,2) 3.009483E-02 (1,14,1) -8.207217E-03 (1,14,3) 2.414593E-02 (1,15,2) -8.790876E-03
(1,14,3): (1,13,3) 9.449709E-02 (1,14,2) -2.414593E-02 (1,14,4) 4.986061E-02 (1,15,3) -2.619575E-02
(1,14,4): (1,13,4) 0.239712 (1,14,3) -4.986061E-02 (1,14,5) 6.424068E-02 (1,15,4) -6.289987E-02
(1,14,5): (1,13,5) 0.444063 (1,14,4) -6.424068E-02 (1,14,6) 2.553519E-02 (1,15,5) -0.111061
(1,14,6): (1,13,6) 0.518019 (1,14,5) -2.553519E-02 (1,14,7) -2.549976E-02 (1,15,6) -0.129962
(1,14,7): (1,13,7) 0.444133 (1,14,6) 2.549976E-02 (1,14,8) -6.409381E-02 (1,15,7) -0.111085
(1,14,8): (1,13,8) 0.240083 (1,14,7) 6.409381E-02 (1,14,9) -4.921699E-02 (1,15,8) -6.302061E-02
(1,14,9): (1,13,9) 9.625997E-02 (1,14,8) 4.921699E-02 (1,14,10) -2.165113E-02 (1,15,9) -2.675263E-02
(1,14,10): (1,13,10) 3.761064E-02 (1,14,9) 2.165113E-02 (1,15,10) -1.107407E-02
(1,15,1): (1,14,1) 2.984585E-03 (1,15,2) 2.400960E-03
(1,15,2): (1,14,2) 8.790876E-03 (1,15,1) -2.400960E-03 (1,15,3) 6.741412E-03
(1,15,3): (1,14,3) 2.619575E-02 (1,15,2) -6.741412E-03 (1,15,4) 1.316127E-02
(1,15,4): (1,14,4) 6.289987E-02 (1,15,3) -1.316127E-02 (1,15,5) 1.610154E-02
(1,15,5): (1,14,5) 0.111061 (1,15,4) -1.610154E-02 (1,15,6) 6.654301E-03
(1,15,6): (1,14,6) 0.129962 (1,15,5) -6.654301E-03 (1,15,7) -6.641983E-03
(1,15,7): (1,14,7) 0.111085 (1,15,6) 6.641983E-03 (1,15,8) -1.605232E-02
(1,15,8): (1,14,8) 6.302061E-02 (1,15,7) 1.605232E-02 (1,15,9) -1.295401E-02
(1,15,9): (1,14,9) 2.675263E-02 (1,15,8) 1.295401E-02 (1,15,10) -5.973360E-03
(1,15,10): (1,14,10) 1.107407E-02 (1,15,9) 5.973360E-03

 WEL PACKAGE (WEL-1) FLOW RATES   PERIOD      2   STEP       27
 ----------------------------------------------------------------------------------------
   NUMBER   CELLID                    RATE       NAME                                    
 ----------------------------------------------------------------------------------------
     1      (1,8,6)              -223.65794      WEL                                     
 ----------------------------------------------------------------------------------------




 API PACKAGE (MAR) FLOW RATES   PERIOD      2   STEP       27
 -----------------------------------------------
   NUMBER   CELLID                    RATE      
 -----------------------------------------------
     1      (1,6,5)               46.666667     
     2      (1,6,6)               46.666667     
     3      (1,6,7)               46.666667     
     4      (1,10,5)              27.885981     
     5      (1,10,6)              27.885981     
     6      (1,10,7)              27.885981     
 -----------------------------------------------



1
  HEAD IN LAYER   1 AT END OF TIME STEP  27 IN STRESS PERIOD    2
  ---------------------------------------------------------------------------

            1           2           3           4           5           6           7           8           9          10
 ........................................................................................................................
   1   1.5016E-04  4.1146E-04  1.1462E-03  2.5841E-03  4.3502E-03  5.0826E-03  4.3515E-03  2.5908E-03  1.1754E-03  5.2415E-04
   2   4.7531E-04  1.3707E-03  4.0112E-03  9.4874E-03  1.6595E-02  1.9433E-02  1.6599E-02  9.5072E-03  4.1010E-03  1.7322E-03
   3   1.5357E-03  4.6669E-03  1.4400E-02  3.5993E-02  6.6101E-02  7.7292E-02  6.6112E-02  3.6053E-02  1.4682E-02  5.8491E-03
   4   4.0598E-03  1.3083E-02  4.3009E-02  0.1156      0.2285      0.2644      0.2286      0.1157      4.3730E-02  1.6245E-02
   5   7.9563E-03  2.7382E-02  9.7474E-02  0.2911      0.6600      0.7369      0.6601      0.2913      9.8833E-02  3.3645E-02
   6   9.4351E-03  3.4391E-02  0.1350      0.4838       1.580       1.591       1.581      0.4841      0.1365      4.1864E-02
   7   2.5575E-03  5.2309E-03  4.0596E-03 -4.5853E-02 -0.3284      -1.465     -0.3283     -4.5723E-02  4.5998E-03  7.0969E-03
   8  -2.6588E-03 -1.7042E-02 -9.7686E-02 -0.4749      -2.031      -8.527      -2.031     -0.4749     -9.7933E-02 -1.9445E-02
   9   1.9285E-03  2.8280E-03 -5.9767E-03 -8.4223E-02 -0.4486      -1.611     -0.4486     -8.4113E-02 -5.5394E-03  4.1907E-03
  10   8.3617E-03  2.9893E-02  0.1132      0.3804       1.133       1.088       1.133      0.3807      0.1146      3.6503E-02
  11   7.1980E-03  2.4551E-02  8.6012E-02  0.2495      0.5399      0.5967      0.5400      0.2497      8.7246E-02  3.0211E-02
  12   3.7040E-03  1.1881E-02  3.8756E-02  0.1027      0.1990      0.2291      0.1990      0.1029      3.9414E-02  1.4765E-02
  13   1.4071E-03  4.2654E-03  1.3108E-02  3.2546E-02  5.9212E-02  6.9063E-02  5.9222E-02  3.2601E-02  1.3367E-02  5.3482E-03
  14   4.3661E-04  1.2572E-03  3.6709E-03  8.6527E-03  1.5067E-02  1.7616E-02  1.5071E-02  8.6709E-03  3.7535E-03  1.5892E-03
  15   1.3817E-04  3.7826E-04  1.0523E-03  2.3681E-03  3.9777E-03  4.6428E-03  3.9789E-03  2.3743E-03  1.0792E-03  4.8193E-04

 HEAD WILL BE SAVED ON UNIT 1043 AT END OF TIME STEP   27, STRESS PERIOD    2


  VOLUME BUDGET FOR ENTIRE MODEL AT END OF TIME STEP   27, STRESS PERIOD   2
  ---------------------------------------------------------------------------------------------------

     CUMULATIVE VOLUME      L**3       RATES FOR THIS TIME STEP      L**3/T          PACKAGE NAME    
     ------------------                 ------------------------                     ----------------

           IN:                                      IN:
           ---                                      ---
              STO-SS =          15.2678                STO-SS =       3.2891E-02     STORAGE                          
              STO-SY =       39042.5123                STO-SY =          69.8443     STORAGE                          
                 WEL =           0.0000                   WEL =           0.0000     WEL-1                            
                 API =       69453.4325                   API =         223.6579     MAR                              
                 CHD =       2.8247E-08                   CHD =           0.0000     CHD_0                            

            TOTAL IN =      108511.2127              TOTAL IN =         293.5351

          OUT:                                     OUT:
          ----                                     ----
              STO-SS =          20.3649                STO-SS =       3.5956E-02     STORAGE                          
              STO-SY =       39037.4153                STO-SY =          69.8412     STORAGE                          
                 WEL =       69453.4325                   WEL =         223.6579     WEL-1                            
                 API =           0.0000                   API =           0.0000     MAR                              
                 CHD =       3.0388E-08                   CHD =           0.0000     CHD_0                            

           TOTAL OUT =      108511.2127             TOTAL OUT =         293.5351

            IN - OUT =       1.8945E-07              IN - OUT =      -3.8338E-09

 PERCENT DISCREPANCY =           0.00     PERCENT DISCREPANCY =          -0.00




         TIME SUMMARY AT END OF TIME STEP   27 IN STRESS PERIOD    2
                    SECONDS     MINUTES      HOURS       DAYS        YEARS
                    -----------------------------------------------------------
   TIME STEP LENGTH 8.64000E+05  14400.      240.00      10.000     2.73785E-02
 STRESS PERIOD TIME 2.33280E+07 3.88800E+05  6480.0      270.00     0.73922    
         TOTAL TIME 2.34144E+07 3.90240E+05  6504.0      271.00     0.74196    


end timestep


start timestep kper="2" kstp="28" mode="normal"

 UBDSV1 SAVING           STO-SS ON UNIT   1042 AT TIME STEP     28, STRESS PERIOD      2
 UBDSV1 SAVING           STO-SY ON UNIT   1042 AT TIME STEP     28, STRESS PERIOD      2
 UBDSV1 SAVING     FLOW-JA-FACE ON UNIT   1042 AT TIME STEP     28, STRESS PERIOD      2
 UBDSV06 SAVING       DATA-SPDIS IN MODEL GWF              PACKAGE NPF             CONNECTED TO MODEL GWF              PACKAGE NPF              ON UNIT   1042 AT TIME STEP     28, STRESS PERIOD      2
 UBDSV06 SAVING              WEL IN MODEL GWF              PACKAGE GWF             CONNECTED TO MODEL GWF              PACKAGE WEL-1            ON UNIT   1042 AT TIME STEP     28, STRESS PERIOD      2
 UBDSV06 SAVING              API IN MODEL GWF              PACKAGE GWF             CONNECTED TO MODEL GWF              PACKAGE MAR              ON UNIT   1042 AT TIME STEP     28, STRESS PERIOD      2
 UBDSV06 SAVING              CHD IN MODEL GWF              PACKAGE GWF             CONNECTED TO MODEL GWF              PACKAGE CHD_0            ON UNIT   1042 AT TIME STEP     28, STRESS PERIOD      2

    CALCULATED INTERCELL FLOW FOR PERIOD 2 STEP 28
(1,1,1): (1,1,2) 3.090683E-03 (1,2,1) 3.839291E-03
(1,1,2): (1,1,1) -3.090683E-03 (1,1,3) 8.530558E-03 (1,2,2) 1.104424E-02
(1,1,3): (1,1,2) -8.530558E-03 (1,1,4) 1.637167E-02 (1,2,3) 3.229820E-02
(1,1,4): (1,1,3) -1.637167E-02 (1,1,5) 1.979930E-02 (1,2,4) 7.648410E-02
(1,1,5): (1,1,4) -1.979930E-02 (1,1,6) 8.224833E-03 (1,2,5) 0.134080
(1,1,6): (1,1,5) -8.224833E-03 (1,1,7) -8.207341E-03 (1,2,6) 0.156872
(1,1,7): (1,1,6) 8.207341E-03 (1,1,8) -1.973130E-02 (1,2,7) 0.134112
(1,1,8): (1,1,7) 1.973130E-02 (1,1,9) -1.609214E-02 (1,2,8) 7.664573E-02
(1,1,9): (1,1,8) 1.609214E-02 (1,1,10) -7.518748E-03 (1,2,9) 3.302615E-02
(1,1,10): (1,1,9) 7.518748E-03 (1,2,10) 1.396224E-02
(1,2,1): (1,1,1) -3.839291E-03 (1,2,2) 1.029558E-02 (1,3,1) 1.223165E-02
(1,2,2): (1,1,2) -1.104424E-02 (1,2,1) -1.029558E-02 (1,2,3) 2.978399E-02 (1,3,2) 3.705478E-02
(1,2,3): (1,1,3) -3.229820E-02 (1,2,2) -2.978399E-02 (1,2,4) 6.055054E-02 (1,3,3) 0.114365
(1,2,4): (1,1,4) -7.648410E-02 (1,2,3) -6.055054E-02 (1,2,5) 7.736286E-02 (1,3,4) 0.287048
(1,2,5): (1,1,5) -0.134080 (1,2,4) -7.736286E-02 (1,2,6) 3.098807E-02 (1,3,5) 0.530716
(1,2,6): (1,1,6) -0.156872 (1,2,5) -3.098807E-02 (1,2,7) -3.093891E-02 (1,3,6) 0.619938
(1,2,7): (1,1,7) -0.134112 (1,2,6) 3.093891E-02 (1,2,8) -7.716487E-02 (1,3,7) 0.530810
(1,2,8): (1,1,8) -7.664573E-02 (1,2,7) 7.716487E-02 (1,2,9) -5.970434E-02 (1,3,8) 0.287536
(1,2,9): (1,1,9) -3.302615E-02 (1,2,8) 5.970434E-02 (1,2,10) -2.658144E-02 (1,3,9) 0.116625
(1,2,10): (1,1,10) -1.396224E-02 (1,2,9) 2.658144E-02 (1,3,10) 4.646796E-02
(1,3,1): (1,2,1) -1.223165E-02 (1,3,2) 3.511823E-02 (1,4,1) 2.833722E-02
(1,3,2): (1,2,2) -3.705478E-02 (1,3,1) -3.511823E-02 (1,3,3) 0.107089 (1,4,2) 9.208641E-02
(1,3,3): (1,2,3) -0.114365 (1,3,2) -0.107089 (1,3,4) 0.233141 (1,4,3) 0.307116
(1,3,4): (1,2,4) -0.287048 (1,3,3) -0.233141 (1,3,5) 0.320527 (1,4,4) 0.844678
(1,3,5): (1,2,5) -0.530716 (1,3,4) -0.320527 (1,3,6) 0.119774 (1,4,5) 1.72048
(1,3,6): (1,2,6) -0.619938 (1,3,5) -0.119774 (1,3,7) -0.119631 (1,4,6) 1.98597
(1,3,7): (1,2,7) -0.530810 (1,3,6) 0.119631 (1,3,8) -0.319935 (1,4,7) 1.72068
(1,3,8): (1,2,8) -0.287536 (1,3,7) 0.319935 (1,3,9) -0.230519 (1,4,8) 0.845737
(1,3,9): (1,2,9) -0.116625 (1,3,8) 0.230519 (1,3,10) -9.672416E-02 (1,4,9) 0.312176
(1,3,10): (1,2,10) -4.646796E-02 (1,3,9) 9.672416E-02 (1,4,10) 0.114231
(1,4,1): (1,3,1) -2.833722E-02 (1,4,2) 9.887173E-02 (1,5,1) 4.237168E-02
(1,4,2): (1,3,2) -9.208641E-02 (1,4,1) -9.887173E-02 (1,4,3) 0.322151 (1,5,2) 0.151739
(1,4,3): (1,3,3) -0.307116 (1,4,2) -0.322151 (1,4,4) 0.770315 (1,5,3) 0.570010
(1,4,4): (1,3,4) -0.844678 (1,4,3) -0.770315 (1,4,5) 1.19196 (1,5,4) 1.84150
(1,4,5): (1,3,5) -1.72048 (1,4,4) -1.19196 (1,4,6) 0.381325 (1,5,5) 4.64220
(1,4,6): (1,3,6) -1.98597 (1,4,5) -0.381325 (1,4,7) -0.380981 (1,5,6) 5.11496
(1,4,7): (1,3,7) -1.72068 (1,4,6) 0.380981 (1,4,8) -1.19051 (1,5,7) 4.64249
(1,4,8): (1,3,8) -0.845737 (1,4,7) 1.19051 (1,4,9) -0.763654 (1,5,8) 1.84297
(1,4,9): (1,3,9) -0.312176 (1,4,8) 0.763654 (1,4,10) -0.294635 (1,5,9) 0.577236
(1,4,10): (1,3,10) -0.114231 (1,4,9) 0.294635 (1,5,10) 0.185435
(1,5,1): (1,4,1) -4.237168E-02 (1,5,2) 0.208300 (1,6,1) 1.440479E-02
(1,5,2): (1,4,2) -0.151739 (1,5,1) -0.208300 (1,5,3) 0.741122 (1,6,2) 6.802186E-02
(1,5,3): (1,4,3) -0.570010 (1,5,2) -0.741122 (1,5,4) 2.04421 (1,6,3) 0.369195
(1,5,4): (1,4,4) -1.84150 (1,5,3) -2.04421 (1,5,5) 3.97669 (1,6,4) 1.98371
(1,5,5): (1,4,5) -4.64220 (1,5,4) -3.97669 (1,5,6) 0.837849 (1,6,5) 10.5717
(1,5,6): (1,4,6) -5.11496 (1,5,5) -0.837849 (1,5,7) -0.837221 (1,6,6) 9.78816
(1,5,7): (1,4,7) -4.64249 (1,5,6) 0.837221 (1,5,8) -3.97399 (1,6,7) 10.5719
(1,5,8): (1,4,8) -1.84297 (1,5,7) 3.97399 (1,5,9) -2.03162 (1,6,8) 1.98412
(1,5,9): (1,4,9) -0.577236 (1,5,8) 2.03162 (1,5,10) -0.686855 (1,6,9) 0.371323
(1,5,10): (1,4,10) -0.185435 (1,5,9) 0.686855 (1,6,10) 7.984489E-02
(1,6,1): (1,5,1) -1.440479E-02 (1,6,2) 0.262020 (1,7,1) -7.525075E-02
(1,6,2): (1,5,2) -6.802186E-02 (1,6,1) -0.262020 (1,6,3) 1.04427 (1,7,2) -0.311524
(1,6,3): (1,5,3) -0.369195 (1,6,2) -1.04427 (1,6,4) 3.68347 (1,7,3) -1.38199
(1,6,4): (1,5,4) -1.98371 (1,6,3) -3.68347 (1,6,5) 12.6974 (1,7,4) -5.68002
(1,6,5): (1,5,5) -10.5717 (1,6,4) -12.6974 (1,6,6) 0.111285 (1,7,5) -22.3218
(1,6,6): (1,5,6) -9.78816 (1,6,5) -0.111285 (1,6,7) -0.110552 (1,7,6) -35.6394
(1,6,7): (1,5,7) -10.5719 (1,6,6) 0.110552 (1,6,8) -12.6942 (1,7,7) -22.3223
(1,6,8): (1,5,8) -1.98412 (1,6,7) 12.6942 (1,6,9) -3.66890 (1,7,8) -5.68225
(1,6,9): (1,5,9) -0.371323 (1,6,8) 3.66890 (1,6,10) -0.980054 (1,7,9) -1.39382
(1,6,10): (1,5,10) -7.984489E-02 (1,6,9) 0.980054 (1,7,10) -0.372988
(1,7,1): (1,6,1) 7.525075E-02 (1,7,2) 2.586302E-02 (1,8,1) -5.675608E-02
(1,7,2): (1,6,2) 0.311524 (1,7,1) -2.586302E-02 (1,7,3) -2.269593E-02 (1,8,2) -0.236318
(1,7,3): (1,6,3) 1.38199 (1,7,2) 2.269593E-02 (1,7,4) -0.540367 (1,8,3) -1.05719
(1,7,4): (1,6,4) 5.68002 (1,7,3) 0.540367 (1,7,5) -2.87746 (1,8,4) -4.35762
(1,7,5): (1,6,5) 22.3218 (1,7,4) 2.87746 (1,7,6) -10.9859 (1,8,5) -16.5712
(1,7,6): (1,6,6) 35.6394 (1,7,5) 10.9859 (1,7,7) 10.9863 (1,8,6) -60.1487
(1,7,7): (1,6,7) 22.3223 (1,7,6) -10.9863 (1,7,8) 2.87867 (1,8,7) -16.5715
(1,7,8): (1,6,8) 5.68225 (1,7,7) -2.87867 (1,7,9) 0.544928 (1,8,8) -4.35921
(1,7,9): (1,6,9) 1.39382 (1,7,8) -0.544928 (1,7,10) 3.669673E-02 (1,8,9) -1.06598
(1,7,10): (1,6,10) 0.372988 (1,7,9) -3.669673E-02 (1,8,10) -0.282604
(1,8,1): (1,7,1) 5.675608E-02 (1,8,2) -0.153558 (1,9,1) 4.956830E-02
(1,8,2): (1,7,2) 0.236318 (1,8,1) 0.153558 (1,8,3) -0.841815 (1,9,2) 0.209099
(1,8,3): (1,7,3) 1.05719 (1,8,2) 0.841815 (1,8,4) -3.82362 (1,9,3) 0.943181
(1,8,4): (1,7,4) 4.35762 (1,8,3) 3.82362 (1,8,5) -14.9010 (1,9,4) 3.91341
(1,8,5): (1,7,5) 16.5712 (1,8,4) 14.9010 (1,8,6) -51.4747 (1,9,5) 15.0778
(1,8,6): (1,7,6) 60.1487 (1,8,5) 51.4747 (1,8,7) 51.4748 (1,9,6) 57.6575
(1,8,7): (1,7,7) 16.5715 (1,8,6) -51.4748 (1,8,8) 14.9008 (1,9,7) 15.0780
(1,8,8): (1,7,8) 4.35921 (1,8,7) -14.9008 (1,8,9) 3.82089 (1,9,8) 3.91475
(1,8,9): (1,7,9) 1.06598 (1,8,8) -3.82089 (1,8,10) 0.818153 (1,9,9) 0.950760
(1,8,10): (1,7,10) 0.282604 (1,8,9) -0.818153 (1,9,10) 0.249623
(1,9,1): (1,8,1) -4.956830E-02 (1,9,2) 5.884558E-03 (1,10,1) 7.017808E-02
(1,9,2): (1,8,2) -0.209099 (1,9,1) -5.884558E-03 (1,9,3) -0.108472 (1,10,2) 0.287674
(1,9,3): (1,8,3) -0.943181 (1,9,2) 0.108472 (1,9,4) -0.856019 (1,10,3) 1.24681
(1,9,4): (1,8,4) -3.91341 (1,9,3) 0.856019 (1,9,5) -3.75550 (1,10,4) 4.88305
(1,9,5): (1,8,5) -15.0778 (1,9,4) 3.75550 (1,9,6) -11.1086 (1,10,5) 17.5578
(1,9,6): (1,8,6) -57.6575 (1,9,5) 11.1086 (1,9,7) 11.1089 (1,10,6) 29.8022
(1,9,7): (1,8,7) -15.0780 (1,9,6) -11.1089 (1,9,8) 3.75653 (1,10,7) 17.5583
(1,9,8): (1,8,8) -3.91475 (1,9,7) -3.75653 (1,9,9) 0.859629 (1,10,8) 4.88510
(1,9,9): (1,8,9) -0.950760 (1,9,8) -0.859629 (1,9,10) 0.117940 (1,10,9) 1.25783
(1,9,10): (1,8,10) -0.249623 (1,9,9) -0.117940 (1,10,10) 0.344952
(1,10,1): (1,9,1) -7.017808E-02 (1,10,2) 0.223242 (1,11,1) -1.086477E-02
(1,10,2): (1,9,2) -0.287674 (1,10,1) -0.223242 (1,10,3) 0.847048 (1,11,2) -4.925142E-02
(1,10,3): (1,9,3) -1.24681 (1,10,2) -0.847048 (1,10,4) 2.71499 (1,11,3) -0.252797
(1,10,4): (1,9,4) -4.88305 (1,10,3) -2.71499 (1,10,5) 8.11977 (1,11,4) -1.26393
(1,10,5): (1,9,5) -17.5578 (1,10,4) -8.11977 (1,10,6) -0.569282 (1,11,5) -6.28904
(1,10,6): (1,9,6) -29.8022 (1,10,5) 0.569282 (1,10,7) 0.569913 (1,11,6) -5.07862
(1,10,7): (1,9,7) -17.5583 (1,10,6) -0.569913 (1,10,8) -8.11700 (1,11,7) -6.28912
(1,10,8): (1,9,8) -4.88510 (1,10,7) 8.11700 (1,10,9) -2.70216 (1,11,8) -1.26423
(1,10,9): (1,9,9) -1.25783 (1,10,8) 2.70216 (1,10,10) -0.790924 (1,11,9) -0.254425
(1,10,10): (1,9,10) -0.344952 (1,10,9) 0.790924 (1,11,10) -5.811048E-02
(1,11,1): (1,10,1) 1.086477E-02 (1,11,2) 0.184789 (1,12,1) -3.779548E-02
(1,11,2): (1,10,2) 4.925142E-02 (1,11,1) -0.184789 (1,11,3) 0.642322 (1,12,2) -0.133290
(1,11,3): (1,10,3) 0.252797 (1,11,2) -0.642322 (1,11,4) 1.69033 (1,12,3) -0.487648
(1,11,4): (1,10,4) 1.26393 (1,11,3) -1.69033 (1,11,5) 3.02141 (1,12,4) -1.50451
(1,11,5): (1,10,5) 6.28904 (1,11,4) -3.02141 (1,11,6) 0.589210 (1,12,5) -3.53746
(1,11,6): (1,10,6) 5.07862 (1,11,5) -0.589210 (1,11,7) -0.588652 (1,12,6) -3.81906
(1,11,7): (1,10,7) 6.28912 (1,11,6) 0.588652 (1,11,8) -3.01898 (1,12,7) -3.53771
(1,11,8): (1,10,8) 1.26423 (1,11,7) 3.01898 (1,11,9) -1.67896 (1,12,8) -1.50582
(1,11,9): (1,10,9) 0.254425 (1,11,8) 1.67896 (1,11,10) -0.593583 (1,12,9) -0.494116
(1,11,10): (1,10,10) 5.811048E-02 (1,11,9) 0.593583 (1,12,10) -0.163280
(1,12,1): (1,11,1) 3.779548E-02 (1,12,2) 8.924569E-02 (1,13,1) -2.571816E-02
(1,12,2): (1,11,2) 0.133290 (1,12,1) -8.924569E-02 (1,12,3) 0.287427 (1,13,2) -8.297951E-02
(1,12,3): (1,11,3) 0.487648 (1,12,2) -0.287427 (1,12,4) 0.671679 (1,13,3) -0.273443
(1,12,4): (1,11,4) 1.50451 (1,12,3) -0.671679 (1,12,5) 0.997706 (1,13,4) -0.736785
(1,12,5): (1,11,5) 3.53746 (1,12,4) -0.997706 (1,12,6) 0.315171 (1,13,5) -1.45632
(1,12,6): (1,11,6) 3.81906 (1,12,5) -0.315171 (1,12,7) -0.314859 (1,13,6) -1.66971
(1,12,7): (1,11,7) 3.53771 (1,12,6) 0.314859 (1,12,8) -0.996380 (1,13,7) -1.45650
(1,12,8): (1,11,8) 1.50582 (1,12,7) 0.996380 (1,12,9) -0.665610 (1,13,8) -0.737745
(1,12,9): (1,11,9) 0.494116 (1,12,8) 0.665610 (1,12,10) -0.262425 (1,13,9) -0.278042
(1,12,10): (1,11,10) 0.163280 (1,12,9) 0.262425 (1,13,10) -0.103053
(1,13,1): (1,12,1) 2.571816E-02 (1,13,2) 3.198077E-02 (1,14,1) -1.117817E-02
(1,13,2): (1,12,2) 8.297951E-02 (1,13,1) -3.198077E-02 (1,13,3) 9.693629E-02 (1,14,2) -3.373747E-02
(1,13,3): (1,12,3) 0.273443 (1,13,2) -9.693629E-02 (1,13,4) 0.208632 (1,14,3) -0.103511
(1,13,4): (1,12,4) 0.736785 (1,13,3) -0.208632 (1,13,5) 0.281310 (1,14,4) -0.257315
(1,13,5): (1,12,5) 1.45632 (1,13,4) -0.281310 (1,13,6) 0.104482 (1,14,5) -0.469542
(1,13,6): (1,12,6) 1.66971 (1,13,5) -0.104482 (1,13,7) -0.104351 (1,14,6) -0.546654
(1,13,7): (1,12,7) 1.45650 (1,13,6) 0.104351 (1,13,8) -0.280768 (1,14,7) -0.469628
(1,13,8): (1,12,8) 0.737745 (1,13,7) 0.280768 (1,13,9) -0.206230 (1,14,8) -0.257760
(1,13,9): (1,12,9) 0.278042 (1,13,8) 0.206230 (1,13,10) -8.746237E-02 (1,14,9) -0.105577
(1,13,10): (1,12,10) 0.103053 (1,13,9) 8.746237E-02 (1,14,10) -4.233381E-02
(1,14,1): (1,13,1) 1.117817E-02 (1,14,2) 9.421869E-03 (1,15,1) -3.520468E-03
(1,14,2): (1,13,2) 3.373747E-02 (1,14,1) -9.421869E-03 (1,14,3) 2.716748E-02 (1,15,2) -1.010525E-02
(1,14,3): (1,13,3) 0.103511 (1,14,2) -2.716748E-02 (1,14,4) 5.490239E-02 (1,15,3) -2.945656E-02
(1,14,4): (1,13,4) 0.257315 (1,14,3) -5.490239E-02 (1,14,5) 6.947556E-02 (1,15,4) -6.941041E-02
(1,14,5): (1,13,5) 0.469542 (1,14,4) -6.947556E-02 (1,14,6) 2.770481E-02 (1,15,5) -0.120914
(1,14,6): (1,13,6) 0.546654 (1,14,5) -2.770481E-02 (1,14,7) -2.765969E-02 (1,15,6) -0.141190
(1,14,7): (1,13,7) 0.469628 (1,14,6) 2.765969E-02 (1,14,8) -6.929368E-02 (1,15,7) -0.120943
(1,14,8): (1,13,8) 0.257760 (1,14,7) 6.929368E-02 (1,14,9) -5.412537E-02 (1,15,8) -6.955870E-02
(1,14,9): (1,13,9) 0.105577 (1,14,8) 5.412537E-02 (1,14,10) -2.423026E-02 (1,15,9) -3.012444E-02
(1,14,10): (1,13,10) 4.233381E-02 (1,14,9) 2.423026E-02 (1,15,10) -1.277973E-02
(1,15,1): (1,14,1) 3.520468E-03 (1,15,2) 2.837135E-03
(1,15,2): (1,14,2) 1.010525E-02 (1,15,1) -2.837135E-03 (1,15,3) 7.816607E-03
(1,15,3): (1,14,3) 2.945656E-02 (1,15,2) -7.816607E-03 (1,15,4) 1.495433E-02
(1,15,4): (1,14,4) 6.941041E-02 (1,15,3) -1.495433E-02 (1,15,5) 1.799802E-02
(1,15,5): (1,14,5) 0.120914 (1,15,4) -1.799802E-02 (1,15,6) 7.451526E-03
(1,15,6): (1,14,6) 0.141190 (1,15,5) -7.451526E-03 (1,15,7) -7.435431E-03
(1,15,7): (1,14,7) 0.120943 (1,15,6) 7.435431E-03 (1,15,8) -1.793544E-02
(1,15,8): (1,14,8) 6.955870E-02 (1,15,7) 1.793544E-02 (1,15,9) -1.469718E-02
(1,15,9): (1,14,9) 3.012444E-02 (1,15,8) 1.469718E-02 (1,15,10) -6.886570E-03
(1,15,10): (1,14,10) 1.277973E-02 (1,15,9) 6.886570E-03

 WEL PACKAGE (WEL-1) FLOW RATES   PERIOD      2   STEP       28
 ----------------------------------------------------------------------------------------
   NUMBER   CELLID                    RATE       NAME                                    
 ----------------------------------------------------------------------------------------
     1      (1,8,6)              -222.37740      WEL                                     
 ----------------------------------------------------------------------------------------




 API PACKAGE (MAR) FLOW RATES   PERIOD      2   STEP       28
 -----------------------------------------------
   NUMBER   CELLID                    RATE      
 -----------------------------------------------
     1      (1,6,5)               46.666667     
     2      (1,6,6)               46.666667     
     3      (1,6,7)               46.666667     
     4      (1,10,5)              27.459134     
     5      (1,10,6)              27.459134     
     6      (1,10,7)              27.459134     
 -----------------------------------------------



1
  HEAD IN LAYER   1 AT END OF TIME STEP  28 IN STRESS PERIOD    2
  ---------------------------------------------------------------------------

            1           2           3           4           5           6           7           8           9          10
 ........................................................................................................................
   1   1.8479E-04  4.9384E-04  1.3468E-03  2.9835E-03  4.9624E-03  5.7844E-03  4.9642E-03  2.9920E-03  1.3833E-03  6.3151E-04
   2   5.6870E-04  1.5981E-03  4.5751E-03  1.0624E-02  1.8346E-02  2.1438E-02  1.8351E-02  1.0648E-02  4.6843E-03  2.0274E-03
   3   1.7916E-03  5.3016E-03  1.5993E-02  3.9216E-02  7.1043E-02  8.2922E-02  7.1057E-02  3.9289E-02  1.6328E-02  6.6711E-03
   4   4.6241E-03  1.4497E-02  4.6563E-02  0.1227      0.2391      0.2762      0.2391      0.1228      4.7398E-02  1.8074E-02
   5   8.8575E-03  2.9626E-02  0.1030      0.3014      0.6740      0.7519      0.6740      0.3017      0.1045      3.6550E-02
   6   1.0296E-02  3.6403E-02  0.1394      0.4905       1.586       1.596       1.586      0.4909      0.1411      4.4499E-02
   7   2.7791E-03  5.3641E-03  3.0957E-03 -5.0924E-02 -0.3401      -1.477     -0.3401     -5.0774E-02  3.6982E-03  7.3652E-03
   8  -2.8949E-03 -1.8255E-02 -0.1026     -0.4889      -2.056      -8.535      -2.056     -0.4889     -0.1029     -2.0874E-02
   9   2.0609E-03  2.6492E-03 -8.1951E-03 -9.3867E-02 -0.4730      -1.639     -0.4729     -9.3741E-02 -7.7114E-03  4.0777E-03
  10   9.0724E-03  3.1327E-02  0.1151      0.3767       1.108       1.056       1.108      0.3770      0.1166      3.8441E-02
  11   7.9869E-03  2.6417E-02  9.0076E-02  0.2549      0.5415      0.5971      0.5416      0.2552      9.1472E-02  3.2652E-02
  12   4.2103E-03  1.3123E-02  4.1746E-02  0.1082      0.2060      0.2367      0.2060      0.1084      4.2509E-02  1.6377E-02
  13   1.6396E-03  4.8361E-03  1.4516E-02  3.5305E-02  6.3260E-02  7.3632E-02  6.3273E-02  3.5372E-02  1.4822E-02  6.0887E-03
  14   5.2197E-04  1.4640E-03  4.1796E-03  9.6646E-03  1.6601E-02  1.9366E-02  1.6605E-02  9.6872E-03  4.2799E-03  1.8579E-03
  15   1.6994E-04  4.5364E-04  1.2352E-03  2.7302E-03  4.5292E-03  5.2740E-03  4.5308E-03  2.7381E-03  1.2688E-03  5.8021E-04

 HEAD WILL BE SAVED ON UNIT 1043 AT END OF TIME STEP   28, STRESS PERIOD    2


  VOLUME BUDGET FOR ENTIRE MODEL AT END OF TIME STEP   28, STRESS PERIOD   2
  ---------------------------------------------------------------------------------------------------

     CUMULATIVE VOLUME      L**3       RATES FOR THIS TIME STEP      L**3/T          PACKAGE NAME    
     ------------------                 ------------------------                     ----------------

           IN:                                      IN:
           ---                                      ---
              STO-SS =          15.5857                STO-SS =       3.1786E-02     STORAGE                          
              STO-SY =       39715.8393                STO-SY =          67.3327     STORAGE                          
                 WEL =           0.0000                   WEL =           0.0000     WEL-1                            
                 API =       71677.2065                   API =         222.3774     MAR                              
                 CHD =       2.8247E-08                   CHD =           0.0000     CHD_0                            

            TOTAL IN =      111408.6315              TOTAL IN =         289.7419

          OUT:                                     OUT:
          ----                                     ----
              STO-SS =          20.7112                STO-SS =       3.4638E-02     STORAGE                          
              STO-SY =       39710.7138                STO-SY =          67.3298     STORAGE                          
                 WEL =       71677.2065                   WEL =         222.3774     WEL-1                            
                 API =           0.0000                   API =           0.0000     MAR                              
                 CHD =       3.0388E-08                   CHD =           0.0000     CHD_0                            

           TOTAL OUT =      111408.6315             TOTAL OUT =         289.7419

            IN - OUT =       1.5236E-07              IN - OUT =      -3.7058E-09

 PERCENT DISCREPANCY =           0.00     PERCENT DISCREPANCY =          -0.00




         TIME SUMMARY AT END OF TIME STEP   28 IN STRESS PERIOD    2
                    SECONDS     MINUTES      HOURS       DAYS        YEARS
                    -----------------------------------------------------------
   TIME STEP LENGTH 8.64000E+05  14400.      240.00      10.000     2.73785E-02
 STRESS PERIOD TIME 2.41920E+07 4.03200E+05  6720.0      280.00     0.76660    
         TOTAL TIME 2.42784E+07 4.04640E+05  6744.0      281.00     0.76934    


end timestep


start timestep kper="2" kstp="29" mode="normal"

 UBDSV1 SAVING           STO-SS ON UNIT   1042 AT TIME STEP     29, STRESS PERIOD      2
 UBDSV1 SAVING           STO-SY ON UNIT   1042 AT TIME STEP     29, STRESS PERIOD      2
 UBDSV1 SAVING     FLOW-JA-FACE ON UNIT   1042 AT TIME STEP     29, STRESS PERIOD      2
 UBDSV06 SAVING       DATA-SPDIS IN MODEL GWF              PACKAGE NPF             CONNECTED TO MODEL GWF              PACKAGE NPF              ON UNIT   1042 AT TIME STEP     29, STRESS PERIOD      2
 UBDSV06 SAVING              WEL IN MODEL GWF              PACKAGE GWF             CONNECTED TO MODEL GWF              PACKAGE WEL-1            ON UNIT   1042 AT TIME STEP     29, STRESS PERIOD      2
 UBDSV06 SAVING              API IN MODEL GWF              PACKAGE GWF             CONNECTED TO MODEL GWF              PACKAGE MAR              ON UNIT   1042 AT TIME STEP     29, STRESS PERIOD      2
 UBDSV06 SAVING              CHD IN MODEL GWF              PACKAGE GWF             CONNECTED TO MODEL GWF              PACKAGE CHD_0            ON UNIT   1042 AT TIME STEP     29, STRESS PERIOD      2

    CALCULATED INTERCELL FLOW FOR PERIOD 2 STEP 29
(1,1,1): (1,1,2) 3.625717E-03 (1,2,1) 4.495899E-03
(1,1,2): (1,1,1) -3.625717E-03 (1,1,3) 9.831166E-03 (1,2,2) 1.262100E-02
(1,1,3): (1,1,2) -9.831166E-03 (1,1,4) 1.851597E-02 (1,2,3) 3.615892E-02
(1,1,4): (1,1,3) -1.851597E-02 (1,1,5) 2.206184E-02 (1,2,4) 8.417645E-02
(1,1,5): (1,1,4) -2.206184E-02 (1,1,6) 9.176326E-03 (1,2,5) 0.145829
(1,1,6): (1,1,5) -9.176326E-03 (1,1,7) -9.153709E-03 (1,2,6) 0.170288
(1,1,7): (1,1,6) 9.153709E-03 (1,1,8) -2.197621E-02 (1,2,7) 0.145869
(1,1,8): (1,1,7) 2.197621E-02 (1,1,9) -1.817231E-02 (1,2,8) 8.437319E-02
(1,1,9): (1,1,8) 1.817231E-02 (1,1,10) -8.616063E-03 (1,2,9) 3.702491E-02
(1,1,10): (1,1,9) 8.616063E-03 (1,2,10) 1.601484E-02
(1,2,1): (1,1,1) -4.495899E-03 (1,2,2) 1.175075E-02 (1,3,1) 1.400379E-02
(1,2,2): (1,1,2) -1.262100E-02 (1,2,1) -1.175075E-02 (1,2,3) 3.336843E-02 (1,3,2) 4.136950E-02
(1,2,3): (1,1,3) -3.615892E-02 (1,2,2) -3.336843E-02 (1,2,4) 6.652505E-02 (1,3,3) 0.125020
(1,2,4): (1,1,4) -8.417645E-02 (1,2,3) -6.652505E-02 (1,2,5) 8.367675E-02 (1,3,4) 0.308305
(1,2,5): (1,1,5) -0.145829 (1,2,4) -8.367675E-02 (1,2,6) 3.360211E-02 (1,3,5) 0.562989
(1,2,6): (1,1,6) -0.170288 (1,2,5) -3.360211E-02 (1,2,7) -3.354010E-02 (1,3,6) 0.656570
(1,2,7): (1,1,7) -0.145869 (1,2,6) 3.354010E-02 (1,2,8) -8.343374E-02 (1,3,7) 0.563103
(1,2,8): (1,1,8) -8.437319E-02 (1,2,7) 8.343374E-02 (1,2,9) -6.551169E-02 (1,3,8) 0.308887
(1,2,9): (1,1,9) -3.702491E-02 (1,2,8) 6.551169E-02 (1,2,10) -2.962458E-02 (1,3,9) 0.127650
(1,2,10): (1,1,10) -1.601484E-02 (1,2,9) 2.962458E-02 (1,3,10) 5.207500E-02
(1,3,1): (1,2,1) -1.400379E-02 (1,3,2) 3.911584E-02 (1,4,1) 3.159305E-02
(1,3,2): (1,2,2) -4.136950E-02 (1,3,1) -3.911584E-02 (1,3,3) 0.117012 (1,4,2) 0.100075
(1,3,3): (1,2,3) -0.125020 (1,3,2) -0.117012 (1,3,4) 0.249704 (1,4,3) 0.326783
(1,3,4): (1,2,4) -0.308305 (1,3,3) -0.249704 (1,3,5) 0.337797 (1,4,4) 0.883156
(1,3,5): (1,2,5) -0.562989 (1,3,4) -0.337797 (1,3,6) 0.126700 (1,4,5) 1.77683
(1,3,6): (1,2,6) -0.656570 (1,3,5) -0.126700 (1,3,7) -0.126524 (1,4,6) 2.04857
(1,3,7): (1,2,7) -0.563103 (1,3,6) 0.126524 (1,3,8) -0.337087 (1,4,7) 1.77708
(1,3,8): (1,2,8) -0.308887 (1,3,7) 0.337087 (1,3,9) -0.246637 (1,4,8) 0.884387
(1,3,9): (1,2,9) -0.127650 (1,3,8) 0.246637 (1,3,10) -0.105183 (1,4,9) 0.332524
(1,3,10): (1,2,10) -5.207500E-02 (1,3,9) 0.105183 (1,4,10) 0.124607
(1,4,1): (1,3,1) -3.159305E-02 (1,4,2) 0.107603 (1,5,1) 4.577595E-02
(1,4,2): (1,3,2) -0.100075 (1,4,1) -0.107603 (1,4,3) 0.343758 (1,5,2) 0.159845
(1,4,3): (1,3,3) -0.326783 (1,4,2) -0.343758 (1,4,4) 0.805658 (1,5,3) 0.588710
(1,4,4): (1,3,4) -0.883156 (1,4,3) -0.805658 (1,4,5) 1.22685 (1,5,4) 1.87336
(1,4,5): (1,3,5) -1.77683 (1,4,4) -1.22685 (1,4,6) 0.394295 (1,5,5) 4.67845
(1,4,6): (1,3,6) -2.04857 (1,4,5) -0.394295 (1,4,7) -0.393879 (1,5,6) 5.14975
(1,4,7): (1,3,7) -1.77708 (1,4,6) 0.393879 (1,4,8) -1.22514 (1,5,7) 4.67879
(1,4,8): (1,3,8) -0.884387 (1,4,7) 1.22514 (1,4,9) -0.798037 (1,5,8) 1.87502
(1,4,9): (1,3,9) -0.332524 (1,4,8) 0.798037 (1,4,10) -0.313060 (1,5,9) 0.596658
(1,4,10): (1,3,10) -0.124607 (1,4,9) 0.313060 (1,5,10) 0.196027
(1,5,1): (1,4,1) -4.577595E-02 (1,5,2) 0.221742 (1,6,1) 1.379249E-02
(1,5,2): (1,4,2) -0.159845 (1,5,1) -0.221742 (1,5,3) 0.773397 (1,6,2) 6.511098E-02
(1,5,3): (1,4,3) -0.588710 (1,5,2) -0.773397 (1,5,4) 2.09294 (1,6,3) 0.357088
(1,5,4): (1,4,4) -1.87336 (1,5,3) -2.09294 (1,5,5) 4.01607 (1,6,4) 1.94533
(1,5,5): (1,4,5) -4.67845 (1,5,4) -4.01607 (1,5,6) 0.849386 (1,6,5) 10.4857
(1,5,6): (1,4,6) -5.14975 (1,5,5) -0.849386 (1,5,7) -0.848643 (1,6,6) 9.68226
(1,5,7): (1,4,7) -4.67879 (1,5,6) 0.848643 (1,5,8) -4.01297 (1,6,7) 10.4858
(1,5,8): (1,4,8) -1.87502 (1,5,7) 4.01297 (1,5,9) -2.07882 (1,6,8) 1.94573
(1,5,9): (1,4,9) -0.596658 (1,5,8) 2.07882 (1,5,10) -0.714150 (1,6,9) 0.359136
(1,5,10): (1,4,10) -0.196027 (1,5,9) 0.714150 (1,6,10) 7.638812E-02
(1,6,1): (1,5,1) -1.379249E-02 (1,6,2) 0.273166 (1,7,1) -8.187926E-02
(1,6,2): (1,5,2) -6.511098E-02 (1,6,1) -0.273166 (1,6,3) 1.06738 (1,7,2) -0.330479
(1,6,3): (1,5,3) -0.357088 (1,6,2) -1.06738 (1,6,4) 3.70637 (1,7,3) -1.43585
(1,6,4): (1,5,4) -1.94533 (1,6,3) -3.70637 (1,6,5) 12.6934 (1,7,4) -5.80062
(1,6,5): (1,5,5) -10.4857 (1,6,4) -12.6934 (1,6,6) 0.103726 (1,7,5) -22.5208
(1,6,6): (1,5,6) -9.68226 (1,6,5) -0.103726 (1,6,7) -0.102872 (1,7,6) -35.8384
(1,6,7): (1,5,7) -10.4858 (1,6,6) 0.102872 (1,6,8) -12.6898 (1,7,7) -22.5213
(1,6,8): (1,5,8) -1.94573 (1,6,7) 12.6898 (1,6,9) -3.69034 (1,7,8) -5.80316
(1,6,9): (1,5,9) -0.359136 (1,6,8) 3.69034 (1,6,10) -0.998649 (1,7,9) -1.44895
(1,6,10): (1,5,10) -7.638812E-02 (1,6,9) 0.998649 (1,7,10) -0.397012
(1,7,1): (1,6,1) 8.187926E-02 (1,7,2) 2.470740E-02 (1,8,1) -6.144767E-02
(1,7,2): (1,6,2) 0.330479 (1,7,1) -2.470740E-02 (1,7,3) -3.404776E-02 (1,8,2) -0.249702
(1,7,3): (1,6,3) 1.43585 (1,7,2) 3.404776E-02 (1,7,4) -0.579752 (1,8,3) -1.09514
(1,7,4): (1,6,4) 5.80062 (1,7,3) 0.579752 (1,7,5) -2.93527 (1,8,4) -4.43914
(1,7,5): (1,6,5) 22.5208 (1,7,4) 2.93527 (1,7,6) -10.9763 (1,8,5) -16.6660
(1,7,6): (1,6,6) 35.8384 (1,7,5) 10.9763 (1,7,7) 10.9767 (1,8,6) -60.0362
(1,7,7): (1,6,7) 22.5213 (1,7,6) -10.9767 (1,7,8) 2.93665 (1,8,7) -16.6663
(1,7,8): (1,6,8) 5.80316 (1,7,7) -2.93665 (1,7,9) 0.584755 (1,8,8) -4.44094
(1,7,9): (1,6,9) 1.44895 (1,7,8) -0.584755 (1,7,10) 4.873195E-02 (1,8,9) -1.10483
(1,7,10): (1,6,10) 0.397012 (1,7,9) -4.873195E-02 (1,8,10) -0.299558
(1,8,1): (1,7,1) 6.144767E-02 (1,8,2) -0.163391 (1,9,1) 5.325738E-02
(1,8,2): (1,7,2) 0.249702 (1,8,1) 0.163391 (1,8,3) -0.877665 (1,9,2) 0.218986
(1,8,3): (1,7,3) 1.09514 (1,8,2) 0.877665 (1,8,4) -3.90639 (1,9,3) 0.967185
(1,8,4): (1,7,4) 4.43914 (1,8,3) 3.90639 (1,8,5) -14.9684 (1,9,4) 3.94471
(1,8,5): (1,7,5) 16.6660 (1,8,4) 14.9684 (1,8,6) -51.2057 (1,9,5) 15.0306
(1,8,6): (1,7,6) 60.0362 (1,8,5) 51.2057 (1,8,7) 51.2058 (1,9,6) 57.3073
(1,8,7): (1,7,7) 16.6663 (1,8,6) -51.2058 (1,8,8) 14.9683 (1,9,7) 15.0308
(1,8,8): (1,7,8) 4.44094 (1,8,7) -14.9683 (1,8,9) 3.90339 (1,9,8) 3.94622
(1,8,9): (1,7,9) 1.10483 (1,8,8) -3.90339 (1,8,10) 0.851989 (1,9,9) 0.975476
(1,8,10): (1,7,10) 0.299558 (1,8,9) -0.851989 (1,9,10) 0.262298
(1,9,1): (1,8,1) -5.325738E-02 (1,9,2) 2.245784E-03 (1,10,1) 7.611562E-02
(1,9,2): (1,8,2) -0.218986 (1,9,1) -2.245784E-03 (1,9,3) -0.130132 (1,10,2) 0.303676
(1,9,3): (1,8,3) -0.967185 (1,9,2) 0.130132 (1,9,4) -0.929982 (1,10,3) 1.28599
(1,9,4): (1,8,4) -3.94471 (1,9,3) 0.929982 (1,9,5) -3.88921 (1,10,4) 4.93721
(1,9,5): (1,8,5) -15.0306 (1,9,4) 3.88921 (1,9,6) -11.1121 (1,10,5) 17.5081
(1,9,6): (1,8,6) -57.3073 (1,9,5) 11.1121 (1,9,7) 11.1125 (1,10,6) 29.6825
(1,9,7): (1,8,7) -15.0308 (1,9,6) -11.1125 (1,9,8) 3.89036 (1,10,7) 17.5085
(1,9,8): (1,8,8) -3.94622 (1,9,7) -3.89036 (1,9,9) 0.933896 (1,10,8) 4.93952
(1,9,9): (1,8,9) -0.975476 (1,9,8) -0.933896 (1,9,10) 0.139685 (1,10,9) 1.29817
(1,9,10): (1,8,10) -0.262298 (1,9,9) -0.139685 (1,10,10) 0.365464
(1,10,1): (1,9,1) -7.611562E-02 (1,10,2) 0.229639 (1,11,1) -9.825855E-03
(1,10,2): (1,9,2) -0.303676 (1,10,1) -0.229639 (1,10,3) 0.848162 (1,11,2) -4.415691E-02
(1,10,3): (1,9,3) -1.28599 (1,10,2) -0.848162 (1,10,4) 2.65308 (1,11,3) -0.228599
(1,10,4): (1,9,4) -4.93721 (1,10,3) -2.65308 (1,10,5) 7.87697 (1,11,4) -1.16861
(1,10,5): (1,9,5) -17.5081 (1,10,4) -7.87697 (1,10,6) -0.631434 (1,11,5) -5.99499
(1,10,6): (1,9,6) -29.6825 (1,10,5) 0.631434 (1,10,7) 0.632166 (1,11,6) -4.73757
(1,10,7): (1,9,7) -17.5085 (1,10,6) -0.632166 (1,10,8) -7.87385 (1,11,7) -5.99506
(1,10,8): (1,9,8) -4.93952 (1,10,7) 7.87385 (1,10,9) -2.63904 (1,11,8) -1.16889
(1,10,9): (1,9,9) -1.29817 (1,10,8) 2.63904 (1,10,10) -0.788583 (1,11,9) -0.230085
(1,10,10): (1,9,10) -0.365464 (1,10,9) 0.788583 (1,11,10) -5.211613E-02
(1,11,1): (1,10,1) 9.825855E-03 (1,11,2) 0.195245 (1,12,1) -4.058901E-02
(1,11,2): (1,10,2) 4.415691E-02 (1,11,1) -0.195245 (1,11,3) 0.662606 (1,12,2) -0.139086
(1,11,3): (1,10,3) 0.228599 (1,11,2) -0.662606 (1,11,4) 1.70018 (1,12,3) -0.496491
(1,11,4): (1,10,4) 1.16861 (1,11,3) -1.70018 (1,11,5) 2.97787 (1,12,4) -1.49972
(1,11,5): (1,10,5) 5.99499 (1,11,4) -2.97787 (1,11,6) 0.575097 (1,12,5) -3.47523
(1,11,6): (1,10,6) 4.73757 (1,11,5) -0.575097 (1,11,7) -0.574438 (1,12,6) -3.73678
(1,11,7): (1,10,7) 5.99506 (1,11,6) 0.574438 (1,11,8) -2.97509 (1,12,7) -3.47551
(1,11,8): (1,10,8) 1.16889 (1,11,7) 2.97509 (1,11,9) -1.68749 (1,12,8) -1.50119
(1,11,9): (1,10,9) 0.230085 (1,11,8) 1.68749 (1,11,10) -0.609645 (1,12,9) -0.503572
(1,11,10): (1,10,10) 5.211613E-02 (1,11,9) 0.609645 (1,12,10) -0.171079
(1,12,1): (1,11,1) 4.058901E-02 (1,12,2) 9.669251E-02 (1,13,1) -2.858739E-02
(1,12,2): (1,11,2) 0.139086 (1,12,1) -9.669251E-02 (1,12,3) 0.304620 (1,13,2) -8.975197E-02
(1,12,3): (1,11,3) 0.496491 (1,12,2) -0.304620 (1,12,4) 0.695049 (1,13,3) -0.288853
(1,12,4): (1,11,4) 1.49972 (1,12,3) -0.695049 (1,12,5) 1.01102 (1,13,4) -0.762157
(1,12,5): (1,11,5) 3.47523 (1,12,4) -1.01102 (1,12,6) 0.320408 (1,13,5) -1.48265
(1,12,6): (1,11,6) 3.73678 (1,12,5) -0.320408 (1,12,7) -0.320032 (1,13,6) -1.69628
(1,12,7): (1,11,7) 3.47551 (1,12,6) 0.320032 (1,12,8) -1.00947 (1,13,7) -1.48287
(1,12,8): (1,11,8) 1.50119 (1,12,7) 1.00947 (1,12,9) -0.688118 (1,13,8) -0.763272
(1,12,9): (1,11,9) 0.503572 (1,12,8) 0.688118 (1,12,10) -0.276806 (1,13,9) -0.294058
(1,12,10): (1,11,10) 0.171079 (1,12,9) 0.276806 (1,13,10) -0.111916
(1,13,1): (1,12,1) 2.858739E-02 (1,13,2) 3.552370E-02 (1,14,1) -1.277513E-02
(1,13,2): (1,12,2) 8.975197E-02 (1,13,1) -3.552370E-02 (1,13,3) 0.105488 (1,14,2) -3.756415E-02
(1,13,3): (1,12,3) 0.288853 (1,13,2) -0.105488 (1,13,4) 0.222054 (1,14,3) -0.112695
(1,13,4): (1,12,4) 0.762157 (1,13,3) -0.222054 (1,13,5) 0.293755 (1,14,4) -0.274736
(1,13,5): (1,12,5) 1.48265 (1,13,4) -0.293755 (1,13,6) 0.109516 (1,14,5) -0.494173
(1,13,6): (1,12,6) 1.69628 (1,13,5) -0.109516 (1,13,7) -0.109355 (1,14,6) -0.574163
(1,13,7): (1,12,7) 1.48287 (1,13,6) 0.109355 (1,13,8) -0.293105 (1,14,7) -0.494277
(1,13,8): (1,12,8) 0.763272 (1,13,7) 0.293105 (1,13,9) -0.219248 (1,14,8) -0.275267
(1,13,9): (1,12,9) 0.294058 (1,13,8) 0.219248 (1,13,10) -9.469501E-02 (1,14,9) -0.115098
(1,13,10): (1,12,10) 0.111916 (1,13,9) 9.469501E-02 (1,14,10) -4.732160E-02
(1,14,1): (1,13,1) 1.277513E-02 (1,14,2) 1.073518E-02 (1,15,1) -4.117743E-03
(1,14,2): (1,13,2) 3.756415E-02 (1,14,1) -1.073518E-02 (1,14,3) 3.036245E-02 (1,15,2) -1.152823E-02
(1,14,3): (1,13,3) 0.112695 (1,14,2) -3.036245E-02 (1,14,4) 6.009776E-02 (1,15,3) -3.289590E-02
(1,14,4): (1,13,4) 0.274736 (1,14,3) -6.009776E-02 (1,14,5) 7.475042E-02 (1,15,4) -7.612282E-02
(1,14,5): (1,13,5) 0.494173 (1,14,4) -7.475042E-02 (1,14,6) 2.988868E-02 (1,15,5) -0.130907
(1,14,6): (1,13,6) 0.574163 (1,14,5) -2.988868E-02 (1,14,7) -2.983181E-02 (1,15,6) -0.152531
(1,14,7): (1,13,7) 0.494277 (1,14,6) 2.983181E-02 (1,14,8) -7.452735E-02 (1,15,7) -0.130943
(1,14,8): (1,13,8) 0.275267 (1,14,7) 7.452735E-02 (1,14,9) -5.916804E-02 (1,15,8) -7.630317E-02
(1,14,9): (1,13,9) 0.115098 (1,14,8) 5.916804E-02 (1,14,10) -2.693278E-02 (1,15,9) -3.368965E-02
(1,14,10): (1,13,10) 4.732160E-02 (1,14,9) 2.693278E-02 (1,15,10) -1.463485E-02
(1,15,1): (1,14,1) 4.117743E-03 (1,15,2) 3.324756E-03
(1,15,2): (1,14,2) 1.152823E-02 (1,15,1) -3.324756E-03 (1,15,3) 8.995322E-03
(1,15,3): (1,14,3) 3.289590E-02 (1,15,2) -8.995322E-03 (1,15,4) 1.687774E-02
(1,15,4): (1,14,4) 7.612282E-02 (1,15,3) -1.687774E-02 (1,15,5) 1.999703E-02
(1,15,5): (1,14,5) 0.130907 (1,15,4) -1.999703E-02 (1,15,6) 8.290629E-03
(1,15,6): (1,14,6) 0.152531 (1,15,5) -8.290629E-03 (1,15,7) -8.269829E-03
(1,15,7): (1,14,7) 0.130943 (1,15,6) 8.269829E-03 (1,15,8) -1.991827E-02
(1,15,8): (1,14,8) 7.630317E-02 (1,15,7) 1.991827E-02 (1,15,9) -1.656179E-02
(1,15,9): (1,14,9) 3.368965E-02 (1,15,8) 1.656179E-02 (1,15,10) -7.879268E-03
(1,15,10): (1,14,10) 1.463485E-02 (1,15,9) 7.879268E-03

 WEL PACKAGE (WEL-1) FLOW RATES   PERIOD      2   STEP       29
 ----------------------------------------------------------------------------------------
   NUMBER   CELLID                    RATE       NAME                                    
 ----------------------------------------------------------------------------------------
     1      (1,8,6)              -221.21436      WEL                                     
 ----------------------------------------------------------------------------------------




 API PACKAGE (MAR) FLOW RATES   PERIOD      2   STEP       29
 -----------------------------------------------
   NUMBER   CELLID                    RATE      
 -----------------------------------------------
     1      (1,6,5)               46.666667     
     2      (1,6,6)               46.666667     
     3      (1,6,7)               46.666667     
     4      (1,10,5)              27.071453     
     5      (1,10,6)              27.071453     
     6      (1,10,7)              27.071453     
 -----------------------------------------------



1
  HEAD IN LAYER   1 AT END OF TIME STEP  29 IN STRESS PERIOD    2
  ---------------------------------------------------------------------------

            1           2           3           4           5           6           7           8           9          10
 ........................................................................................................................
   1   2.2538E-04  5.8793E-04  1.5709E-03  3.4219E-03  5.6268E-03  6.5438E-03  5.6291E-03  3.4327E-03  1.6161E-03  7.5460E-04
   2   6.7494E-04  1.8498E-03  5.1849E-03  1.1830E-02  2.0180E-02  2.3533E-02  2.0187E-02  1.1860E-02  5.3166E-03  2.3557E-03
   3   2.0750E-03  5.9843E-03  1.7665E-02  4.2530E-02  7.6054E-02  8.8613E-02  7.6072E-02  4.2618E-02  1.8059E-02  7.5593E-03
   4   5.2327E-03  1.5976E-02  5.0180E-02  0.1297      0.2494      0.2877      0.2495      0.1299      5.1142E-02  1.9995E-02
   5   9.8058E-03  3.1909E-02  0.1084      0.3114      0.6872      0.7661      0.6872      0.3118      0.1102      3.9521E-02
   6   1.1183E-02  3.8396E-02  0.1436      0.4967       1.592       1.601       1.592      0.4971      0.1456      4.7124E-02
   7   3.0047E-03  5.4741E-03  2.0712E-03 -5.5892E-02 -0.3511      -1.489     -0.3510     -5.5720E-02  2.7392E-03  7.6087E-03
   8  -3.1382E-03 -1.9482E-02 -0.1074     -0.5023      -2.078      -8.542      -2.078     -0.5023     -0.1077     -2.2324E-02
   9   2.1864E-03  2.4109E-03 -1.0599E-02 -0.1037     -0.4967      -1.666     -0.4967     -0.1036     -1.0068E-02  3.8952E-03
  10   9.7905E-03  3.2680E-02  0.1165      0.3723       1.083       1.026       1.083      0.3727      0.1182      4.0295E-02
  11   8.8089E-03  2.8278E-02  9.3922E-02  0.2596      0.5421      0.5964      0.5422      0.2600      9.5492E-02  3.5104E-02
  12   4.7535E-03  1.4409E-02  4.4735E-02  0.1135      0.2125      0.2437      0.2125      0.1136      4.5611E-02  1.8056E-02
  13   1.8962E-03  5.4466E-03  1.5979E-02  3.8100E-02  6.7279E-02  7.8145E-02  6.7295E-02  3.8180E-02  1.6339E-02  6.8848E-03
  14   6.1888E-04  1.6922E-03  4.7270E-03  1.0730E-02  1.8192E-02  2.1174E-02  1.8198E-02  1.0758E-02  4.8479E-03  2.1559E-03
  15   2.0714E-04  5.3959E-04  1.4390E-03  3.1262E-03  5.1249E-03  5.9535E-03  5.1270E-03  3.1362E-03  1.4805E-03  6.9272E-04

 HEAD WILL BE SAVED ON UNIT 1043 AT END OF TIME STEP   29, STRESS PERIOD    2


  VOLUME BUDGET FOR ENTIRE MODEL AT END OF TIME STEP   29, STRESS PERIOD   2
  ---------------------------------------------------------------------------------------------------

     CUMULATIVE VOLUME      L**3       RATES FOR THIS TIME STEP      L**3/T          PACKAGE NAME    
     ------------------                 ------------------------                     ----------------

           IN:                                      IN:
           ---                                      ---
              STO-SS =          15.8937                STO-SS =       3.0801E-02     STORAGE                          
              STO-SY =       40366.9219                STO-SY =          65.1083     STORAGE                          
                 WEL =           0.0000                   WEL =           0.0000     WEL-1                            
                 API =       73889.3501                   API =         221.2144     MAR                              
                 CHD =       2.8247E-08                   CHD =           0.0000     CHD_0                            

            TOTAL IN =      114272.1658              TOTAL IN =         286.3534

          OUT:                                     OUT:
          ----                                     ----
              STO-SS =          21.0460                STO-SS =       3.3474E-02     STORAGE                          
              STO-SY =       40361.7697                STO-SY =          65.1056     STORAGE                          
                 WEL =       73889.3501                   WEL =         221.2144     WEL-1                            
                 API =           0.0000                   API =           0.0000     MAR                              
                 CHD =       3.0388E-08                   CHD =           0.0000     CHD_0                            

           TOTAL OUT =      114272.1658             TOTAL OUT =         286.3534

            IN - OUT =       1.1611E-07              IN - OUT =      -3.6236E-09

 PERCENT DISCREPANCY =           0.00     PERCENT DISCREPANCY =          -0.00




         TIME SUMMARY AT END OF TIME STEP   29 IN STRESS PERIOD    2
                    SECONDS     MINUTES      HOURS       DAYS        YEARS
                    -----------------------------------------------------------
   TIME STEP LENGTH 8.64000E+05  14400.      240.00      10.000     2.73785E-02
 STRESS PERIOD TIME 2.50560E+07 4.17600E+05  6960.0      290.00     0.79398    
         TOTAL TIME 2.51424E+07 4.19040E+05  6984.0      291.00     0.79671    


end timestep


start timestep kper="2" kstp="30" mode="normal"

 UBDSV1 SAVING           STO-SS ON UNIT   1042 AT TIME STEP     30, STRESS PERIOD      2
 UBDSV1 SAVING           STO-SY ON UNIT   1042 AT TIME STEP     30, STRESS PERIOD      2
 UBDSV1 SAVING     FLOW-JA-FACE ON UNIT   1042 AT TIME STEP     30, STRESS PERIOD      2
 UBDSV06 SAVING       DATA-SPDIS IN MODEL GWF              PACKAGE NPF             CONNECTED TO MODEL GWF              PACKAGE NPF              ON UNIT   1042 AT TIME STEP     30, STRESS PERIOD      2
 UBDSV06 SAVING              WEL IN MODEL GWF              PACKAGE GWF             CONNECTED TO MODEL GWF              PACKAGE WEL-1            ON UNIT   1042 AT TIME STEP     30, STRESS PERIOD      2
 UBDSV06 SAVING              API IN MODEL GWF              PACKAGE GWF             CONNECTED TO MODEL GWF              PACKAGE MAR              ON UNIT   1042 AT TIME STEP     30, STRESS PERIOD      2
 UBDSV06 SAVING              CHD IN MODEL GWF              PACKAGE GWF             CONNECTED TO MODEL GWF              PACKAGE CHD_0            ON UNIT   1042 AT TIME STEP     30, STRESS PERIOD      2

    CALCULATED INTERCELL FLOW FOR PERIOD 2 STEP 30
(1,1,1): (1,1,2) 4.221056E-03 (1,2,1) 5.224344E-03
(1,1,2): (1,1,1) -4.221056E-03 (1,1,3) 1.125308E-02 (1,2,2) 1.432451E-02
(1,1,3): (1,1,2) -1.125308E-02 (1,1,4) 2.081613E-02 (1,2,3) 4.023598E-02
(1,1,4): (1,1,3) -2.081613E-02 (1,1,5) 2.445384E-02 (1,2,4) 9.215184E-02
(1,1,5): (1,1,4) -2.445384E-02 (1,1,6) 1.018066E-02 (1,2,5) 0.157865
(1,1,6): (1,1,5) -1.018066E-02 (1,1,7) -1.015172E-02 (1,2,6) 0.183991
(1,1,7): (1,1,6) 1.015172E-02 (1,1,8) -2.434707E-02 (1,2,7) 0.157913
(1,1,8): (1,1,7) 2.434707E-02 (1,1,9) -2.039743E-02 (1,2,8) 9.238916E-02
(1,1,9): (1,1,8) 2.039743E-02 (1,1,10) -9.805984E-03 (1,2,9) 4.125757E-02
(1,1,10): (1,1,9) 9.805984E-03 (1,2,10) 1.824163E-02
(1,2,1): (1,1,1) -5.224344E-03 (1,2,2) 1.332113E-02 (1,3,1) 1.592259E-02
(1,2,2): (1,1,2) -1.432451E-02 (1,2,1) -1.332113E-02 (1,2,3) 3.716376E-02 (1,3,2) 4.591139E-02
(1,2,3): (1,1,3) -4.023598E-02 (1,2,2) -3.716376E-02 (1,2,4) 7.272193E-02 (1,3,3) 0.135964
(1,2,4): (1,1,4) -9.215184E-02 (1,2,3) -7.272193E-02 (1,2,5) 9.012251E-02 (1,3,4) 0.329706
(1,2,5): (1,1,5) -0.157865 (1,2,4) -9.012251E-02 (1,2,6) 3.626848E-02 (1,3,5) 0.595050
(1,2,6): (1,1,6) -0.183991 (1,2,5) -3.626848E-02 (1,2,7) -3.619100E-02 (1,3,6) 0.692853
(1,2,7): (1,1,7) -0.157913 (1,2,6) 3.619100E-02 (1,2,8) -8.982691E-02 (1,3,7) 0.595188
(1,2,8): (1,1,8) -9.238916E-02 (1,2,7) 8.982691E-02 (1,2,9) -7.151839E-02 (1,3,8) 0.330393
(1,2,9): (1,1,9) -4.125757E-02 (1,2,8) 7.151839E-02 (1,2,10) -3.281999E-02 (1,3,9) 0.139003
(1,2,10): (1,1,10) -1.824163E-02 (1,2,9) 3.281999E-02 (1,3,10) 5.800354E-02
(1,3,1): (1,2,1) -1.592259E-02 (1,3,2) 4.330915E-02 (1,4,1) 3.501000E-02
(1,3,2): (1,2,2) -4.591139E-02 (1,3,1) -4.330915E-02 (1,3,3) 0.127208 (1,4,2) 0.108203
(1,3,3): (1,2,3) -0.135964 (1,3,2) -0.127208 (1,3,4) 0.266342 (1,4,3) 0.346251
(1,3,4): (1,2,4) -0.329706 (1,3,3) -0.266342 (1,3,5) 0.354842 (1,4,4) 0.920355
(1,3,5): (1,2,5) -0.595050 (1,3,4) -0.354842 (1,3,6) 0.133539 (1,4,5) 1.83044
(1,3,6): (1,2,6) -0.692853 (1,3,5) -0.133539 (1,3,7) -0.133323 (1,4,6) 2.10795
(1,3,7): (1,2,7) -0.595188 (1,3,6) 0.133323 (1,3,8) -0.353997 (1,4,7) 1.83073
(1,3,8): (1,2,8) -0.330393 (1,3,7) 0.353997 (1,3,9) -0.262781 (1,4,8) 0.921776
(1,3,9): (1,2,9) -0.139003 (1,3,8) 0.262781 (1,3,10) -0.113799 (1,4,9) 0.352721
(1,3,10): (1,2,10) -5.800354E-02 (1,3,9) 0.113799 (1,4,10) 0.135217
(1,4,1): (1,3,1) -3.501000E-02 (1,4,2) 0.116509 (1,5,1) 4.918966E-02
(1,4,2): (1,3,2) -0.108203 (1,4,1) -0.116509 (1,4,3) 0.365301 (1,5,2) 0.167664
(1,4,3): (1,3,3) -0.346251 (1,4,2) -0.365301 (1,4,4) 0.840000 (1,5,3) 0.606061
(1,4,4): (1,3,4) -0.920355 (1,4,3) -0.840000 (1,4,5) 1.26006 (1,5,4) 1.90172
(1,4,5): (1,3,5) -1.83044 (1,4,4) -1.26006 (1,4,6) 0.406702 (1,5,5) 4.70931
(1,4,6): (1,3,6) -2.10795 (1,4,5) -0.406702 (1,4,7) -0.406203 (1,5,6) 5.17901
(1,4,7): (1,3,7) -1.83073 (1,4,6) 0.406203 (1,4,8) -1.25807 (1,5,7) 4.70970
(1,4,8): (1,3,8) -0.921776 (1,4,7) 1.25807 (1,4,9) -0.831338 (1,5,8) 1.90357
(1,4,9): (1,3,9) -0.352721 (1,4,8) 0.831338 (1,4,10) -0.331256 (1,5,9) 0.614750
(1,4,10): (1,3,10) -0.135217 (1,4,9) 0.331256 (1,5,10) 0.206311
(1,5,1): (1,4,1) -4.918966E-02 (1,5,2) 0.235062 (1,6,1) 1.295987E-02
(1,5,2): (1,4,2) -0.167664 (1,5,1) -0.235062 (1,5,3) 0.804546 (1,6,2) 6.162860E-02
(1,5,3): (1,4,3) -0.606061 (1,5,2) -0.804546 (1,5,4) 2.13851 (1,6,3) 0.343731
(1,5,4): (1,4,4) -1.90172 (1,5,3) -2.13851 (1,5,5) 4.05194 (1,6,4) 1.90571
(1,5,5): (1,4,5) -4.70931 (1,5,4) -4.05194 (1,5,6) 0.860243 (1,6,5) 10.4014
(1,5,6): (1,4,6) -5.17901 (1,5,5) -0.860243 (1,5,7) -0.859368 (1,6,6) 9.58093
(1,5,7): (1,4,7) -4.70970 (1,5,6) 0.859368 (1,5,8) -4.04839 (1,6,7) 10.4015
(1,5,8): (1,4,8) -1.90357 (1,5,7) 4.04839 (1,5,9) -2.12278 (1,6,8) 1.90609
(1,5,9): (1,4,9) -0.614750 (1,5,8) 2.12278 (1,5,10) -0.740194 (1,6,9) 0.345656
(1,5,10): (1,4,10) -0.206311 (1,5,9) 0.740194 (1,6,10) 7.219048E-02
(1,6,1): (1,5,1) -1.295987E-02 (1,6,2) 0.283838 (1,7,1) -8.871171E-02
(1,6,2): (1,5,2) -6.162860E-02 (1,6,1) -0.283838 (1,6,3) 1.08868 (1,7,2) -0.349427
(1,6,3): (1,5,3) -0.343731 (1,6,2) -1.08868 (1,6,4) 3.72607 (1,7,3) -1.48818
(1,6,4): (1,5,4) -1.90571 (1,6,3) -3.72607 (1,6,5) 12.6888 (1,7,4) -5.91465
(1,6,5): (1,5,5) -10.4014 (1,6,4) -12.6888 (1,6,6) 9.807025E-02 (1,7,5) -22.7039
(1,6,6): (1,5,6) -9.58093 (1,6,5) -9.807025E-02 (1,6,7) -9.708150E-02 (1,7,6) -36.0181
(1,6,7): (1,5,7) -10.4015 (1,6,6) 9.708150E-02 (1,6,8) -12.6847 (1,7,7) -22.7045
(1,6,8): (1,5,8) -1.90609 (1,6,7) 12.6847 (1,6,9) -3.70852 (1,7,8) -5.91751
(1,6,9): (1,5,9) -0.345656 (1,6,8) 3.70852 (1,6,10) -1.01543 (1,7,9) -1.50264
(1,6,10): (1,5,10) -7.219048E-02 (1,6,9) 1.01543 (1,7,10) -0.421142
(1,7,1): (1,6,1) 8.871171E-02 (1,7,2) 2.329278E-02 (1,8,1) -6.624150E-02
(1,7,2): (1,6,2) 0.349427 (1,7,1) -2.329278E-02 (1,7,3) -4.568848E-02 (1,8,2) -0.262977
(1,7,3): (1,6,3) 1.48818 (1,7,2) 4.568848E-02 (1,7,4) -0.617412 (1,8,3) -1.13179
(1,7,4): (1,6,4) 5.91465 (1,7,3) 0.617412 (1,7,5) -2.98631 (1,8,4) -4.51584
(1,7,5): (1,6,5) 22.7039 (1,7,4) 2.98631 (1,7,6) -10.9632 (1,8,5) -16.7533
(1,7,6): (1,6,6) 36.0181 (1,7,5) 10.9632 (1,7,7) 10.9637 (1,8,6) -59.9377
(1,7,7): (1,6,7) 22.7045 (1,7,6) -10.9637 (1,7,8) 2.98786 (1,8,7) -16.7537
(1,7,8): (1,6,8) 5.91751 (1,7,7) -2.98786 (1,7,9) 0.622869 (1,8,8) -4.51787
(1,7,9): (1,6,9) 1.50264 (1,7,8) -0.622869 (1,7,10) 6.100302E-02 (1,8,9) -1.14241
(1,7,10): (1,6,10) 0.421142 (1,7,9) -6.100302E-02 (1,8,10) -0.316452
(1,8,1): (1,7,1) 6.624150E-02 (1,8,2) -0.173273 (1,9,1) 5.692878E-02
(1,8,2): (1,7,2) 0.262977 (1,8,1) 0.173273 (1,8,3) -0.912611 (1,9,2) 0.228378
(1,8,3): (1,7,3) 1.13179 (1,8,2) 0.912611 (1,8,4) -3.98392 (1,9,3) 0.988638
(1,8,4): (1,7,4) 4.51584 (1,8,3) 3.98392 (1,8,5) -15.0262 (1,9,4) 3.96863
(1,8,5): (1,7,5) 16.7533 (1,8,4) 15.0262 (1,8,6) -50.9564 (1,9,5) 14.9747
(1,8,6): (1,7,6) 59.9377 (1,8,5) 50.9564 (1,8,7) 50.9566 (1,9,6) 56.9693
(1,8,7): (1,7,7) 16.7537 (1,8,6) -50.9566 (1,8,8) 15.0261 (1,9,7) 14.9750
(1,8,8): (1,7,8) 4.51787 (1,8,7) -15.0261 (1,8,9) 3.98064 (1,9,8) 3.97030
(1,8,9): (1,7,9) 1.14241 (1,8,8) -3.98064 (1,8,10) 0.884856 (1,9,9) 0.997658
(1,8,10): (1,7,10) 0.316452 (1,8,9) -0.884856 (1,9,10) 0.274433
(1,9,1): (1,8,1) -5.692878E-02 (1,9,2) -1.917529E-03 (1,10,1) 8.217935E-02
(1,9,2): (1,8,2) -0.228378 (1,9,1) 1.917529E-03 (1,9,3) -0.152925 (1,10,2) 0.319431
(1,9,3): (1,8,3) -0.988638 (1,9,2) 0.152925 (1,9,4) -1.00348 (1,10,3) 1.32316
(1,9,4): (1,8,4) -3.96863 (1,9,3) 1.00348 (1,9,5) -4.01469 (1,10,4) 4.98633
(1,9,5): (1,8,5) -14.9747 (1,9,4) 4.01469 (1,9,6) -11.1121 (1,10,5) 17.4596
(1,9,6): (1,8,6) -56.9693 (1,9,5) 11.1121 (1,9,7) 11.1125 (1,10,6) 29.5644
(1,9,7): (1,8,7) -14.9750 (1,9,6) -11.1125 (1,9,8) 4.01599 (1,10,7) 17.4602
(1,9,8): (1,8,8) -3.97030 (1,9,7) -4.01599 (1,9,9) 1.00769 (1,10,8) 4.98892
(1,9,9): (1,8,9) -0.997658 (1,9,8) -1.00769 (1,9,10) 0.162443 (1,10,9) 1.33654
(1,9,10): (1,8,10) -0.274433 (1,9,9) -0.162443 (1,10,10) 0.385781
(1,10,1): (1,9,1) -8.217935E-02 (1,10,2) 0.235135 (1,11,1) -8.524419E-03
(1,10,2): (1,9,2) -0.319431 (1,10,1) -0.235135 (1,10,3) 0.846374 (1,11,2) -3.834478E-02
(1,10,3): (1,9,3) -1.32316 (1,10,2) -0.846374 (1,10,4) 2.58880 (1,11,3) -0.202940
(1,10,4): (1,9,4) -4.98633 (1,10,3) -2.58880 (1,10,5) 7.64970 (1,11,4) -1.07425
(1,10,5): (1,9,5) -17.4596 (1,10,4) -7.64970 (1,10,6) -0.690018 (1,11,5) -5.71990
(1,10,6): (1,9,6) -29.5644 (1,10,5) 0.690018 (1,10,7) 0.690862 (1,11,6) -4.42048
(1,10,7): (1,9,7) -17.4602 (1,10,6) -0.690862 (1,10,8) -7.64622 (1,11,7) -5.71997
(1,10,8): (1,9,8) -4.98892 (1,10,7) 7.64622 (1,10,9) -2.57353 (1,11,8) -1.07450
(1,10,9): (1,9,9) -1.33654 (1,10,8) 2.57353 (1,10,10) -0.783461 (1,11,9) -0.204236
(1,10,10): (1,9,10) -0.385781 (1,10,9) 0.783461 (1,11,10) -4.520066E-02
(1,11,1): (1,10,1) 8.524419E-03 (1,11,2) 0.205257 (1,12,1) -4.332100E-02
(1,11,2): (1,10,2) 3.834478E-02 (1,11,1) -0.205257 (1,11,3) 0.680747 (1,12,2) -0.144352
(1,11,3): (1,10,3) 0.202940 (1,11,2) -0.680747 (1,11,4) 1.70528 (1,12,3) -0.503205
(1,11,4): (1,10,4) 1.07425 (1,11,3) -1.70528 (1,11,5) 2.93188 (1,12,4) -1.49008
(1,11,5): (1,10,5) 5.71990 (1,11,4) -2.93188 (1,11,6) 0.559780 (1,12,5) -3.40836
(1,11,6): (1,10,6) 4.42048 (1,11,5) -0.559780 (1,11,7) -0.559008 (1,12,6) -3.64977
(1,11,7): (1,10,7) 5.71997 (1,11,6) 0.559008 (1,11,8) -2.92871 (1,12,7) -3.40869
(1,11,8): (1,10,8) 1.07450 (1,11,7) 2.92871 (1,11,9) -1.69120 (1,12,8) -1.49172
(1,11,9): (1,10,9) 0.204236 (1,11,8) 1.69120 (1,11,10) -0.623529 (1,12,9) -0.510905
(1,11,10): (1,10,10) 4.520066E-02 (1,11,9) 0.623529 (1,12,10) -0.178269
(1,12,1): (1,11,1) 4.332100E-02 (1,12,2) 0.104164 (1,13,1) -3.157075E-02
(1,12,2): (1,11,2) 0.144352 (1,12,1) -0.104164 (1,12,3) 0.321270 (1,13,2) -9.652242E-02
(1,12,3): (1,11,3) 0.503205 (1,12,2) -0.321270 (1,12,4) 0.716405 (1,13,3) -0.303604
(1,12,4): (1,11,4) 1.49008 (1,12,3) -0.716405 (1,12,5) 1.02165 (1,13,4) -0.785123
(1,12,5): (1,11,5) 3.40836 (1,12,4) -1.02165 (1,12,6) 0.324545 (1,13,5) -1.50453
(1,12,6): (1,11,6) 3.64977 (1,12,5) -0.324545 (1,12,7) -0.324095 (1,13,6) -1.71757
(1,12,7): (1,11,7) 3.40869 (1,12,6) 0.324095 (1,12,8) -1.01984 (1,13,7) -1.50478
(1,12,8): (1,11,8) 1.49172 (1,12,7) 1.01984 (1,12,9) -0.708546 (1,13,8) -0.786406
(1,12,9): (1,11,9) 0.510905 (1,12,8) 0.708546 (1,12,10) -0.290526 (1,13,9) -0.309454
(1,12,10): (1,11,10) 0.178269 (1,12,9) 0.290526 (1,13,10) -0.120835
(1,13,1): (1,12,1) 3.157075E-02 (1,13,2) 3.920771E-02 (1,14,1) -1.449597E-02
(1,13,2): (1,12,2) 9.652242E-02 (1,13,1) -3.920771E-02 (1,13,3) 0.114153 (1,14,2) -4.155869E-02
(1,13,3): (1,12,3) 0.303604 (1,13,2) -0.114153 (1,13,4) 0.235209 (1,14,3) -0.121997
(1,13,4): (1,12,4) 0.785123 (1,13,3) -0.235209 (1,13,5) 0.305539 (1,14,4) -0.291878
(1,13,5): (1,12,5) 1.50453 (1,13,4) -0.305539 (1,13,6) 0.114269 (1,14,5) -0.517848
(1,13,6): (1,12,6) 1.71757 (1,13,5) -0.114269 (1,13,7) -0.114072 (1,14,6) -0.600434
(1,13,7): (1,12,7) 1.50478 (1,13,6) 0.114072 (1,13,8) -0.304766 (1,14,7) -0.517974
(1,13,8): (1,12,8) 0.786406 (1,13,7) 0.304766 (1,13,9) -0.231956 (1,14,8) -0.292505
(1,13,9): (1,12,9) 0.309454 (1,13,8) 0.231956 (1,13,10) -0.101943 (1,14,9) -0.124768
(1,13,10): (1,12,10) 0.120835 (1,13,9) 0.101943 (1,14,10) -5.255505E-02
(1,14,1): (1,13,1) 1.449597E-02 (1,14,2) 1.214563E-02 (1,15,1) -4.778445E-03
(1,14,2): (1,13,2) 4.155869E-02 (1,14,1) -1.214563E-02 (1,14,3) 3.372052E-02 (1,15,2) -1.305824E-02
(1,14,3): (1,13,3) 0.121997 (1,14,2) -3.372052E-02 (1,14,4) 6.542282E-02 (1,15,3) -3.650037E-02
(1,14,4): (1,13,4) 0.291878 (1,14,3) -6.542282E-02 (1,14,5) 8.004065E-02 (1,15,4) -8.300236E-02
(1,14,5): (1,13,5) 0.517848 (1,14,4) -8.004065E-02 (1,14,6) 3.207499E-02 (1,15,5) -0.140985
(1,14,6): (1,13,6) 0.600434 (1,14,5) -3.207499E-02 (1,14,7) -3.200399E-02 (1,15,6) -0.163921
(1,14,7): (1,13,7) 0.517974 (1,14,6) 3.200399E-02 (1,14,8) -7.976952E-02 (1,15,7) -0.141029
(1,14,8): (1,13,8) 0.292505 (1,14,7) 7.976952E-02 (1,14,9) -6.431969E-02 (1,15,8) -8.321969E-02
(1,14,9): (1,13,9) 0.124768 (1,14,8) 6.431969E-02 (1,14,10) -2.974664E-02 (1,15,9) -3.743568E-02
(1,14,10): (1,13,10) 5.255505E-02 (1,14,9) 2.974664E-02 (1,15,10) -1.663851E-02
(1,15,1): (1,14,1) 4.778445E-03 (1,15,2) 3.865904E-03
(1,15,2): (1,14,2) 1.305824E-02 (1,15,1) -3.865904E-03 (1,15,3) 1.027904E-02
(1,15,3): (1,14,3) 3.650037E-02 (1,15,2) -1.027904E-02 (1,15,4) 1.892898E-02
(1,15,4): (1,14,4) 8.300236E-02 (1,15,3) -1.892898E-02 (1,15,5) 2.209317E-02
(1,15,5): (1,14,5) 0.140985 (1,15,4) -2.209317E-02 (1,15,6) 9.168848E-03
(1,15,6): (1,14,6) 0.163921 (1,15,5) -9.168848E-03 (1,15,7) -9.142246E-03
(1,15,7): (1,14,7) 0.141029 (1,15,6) 9.142246E-03 (1,15,8) -2.199502E-02
(1,15,8): (1,14,8) 8.321969E-02 (1,15,7) 2.199502E-02 (1,15,9) -1.854430E-02
(1,15,9): (1,14,9) 3.743568E-02 (1,15,8) 1.854430E-02 (1,15,10) -8.951066E-03
(1,15,10): (1,14,10) 1.663851E-02 (1,15,9) 8.951066E-03

 WEL PACKAGE (WEL-1) FLOW RATES   PERIOD      2   STEP       30
 ----------------------------------------------------------------------------------------
   NUMBER   CELLID                    RATE       NAME                                    
 ----------------------------------------------------------------------------------------
     1      (1,8,6)              -220.14770      WEL                                     
 ----------------------------------------------------------------------------------------




 API PACKAGE (MAR) FLOW RATES   PERIOD      2   STEP       30
 -----------------------------------------------
   NUMBER   CELLID                    RATE      
 -----------------------------------------------
     1      (1,6,5)               46.666667     
     2      (1,6,6)               46.666667     
     3      (1,6,7)               46.666667     
     4      (1,10,5)              26.715901     
     5      (1,10,6)              26.715901     
     6      (1,10,7)              26.715901     
 -----------------------------------------------



1
  HEAD IN LAYER   1 AT END OF TIME STEP  30 IN STRESS PERIOD    2
  ---------------------------------------------------------------------------

            1           2           3           4           5           6           7           8           9          10
 ........................................................................................................................
   1   2.7258E-04  6.9466E-04  1.8198E-03  3.9006E-03  6.3444E-03  7.3617E-03  6.3473E-03  3.9141E-03  1.8752E-03  8.9477E-04
   2   7.9497E-04  2.1268E-03  5.8410E-03  1.3104E-02  2.2096E-02  2.5714E-02  2.2104E-02  1.3141E-02  5.9985E-03  2.7184E-03
   3   2.3869E-03  6.7149E-03  1.9411E-02  4.5924E-02  8.1122E-02  9.4351E-02  8.1144E-02  4.6029E-02  1.9871E-02  8.5139E-03
   4   5.8858E-03  1.7516E-02  5.3851E-02  0.1367      0.2595      0.2990      0.2596      0.1370      5.4950E-02  2.2006E-02
   5   1.0799E-02  3.4226E-02  0.1138      0.3210      0.6997      0.7795      0.6998      0.3214      0.1157      4.2550E-02
   6   1.2094E-02  4.0364E-02  0.1476      0.5024       1.597       1.605       1.597      0.5029      0.1498      4.9733E-02
   7   3.2334E-03  5.5614E-03  9.9509E-04 -6.0740E-02 -0.3612      -1.499     -0.3612     -6.0545E-02  1.7315E-03  7.8270E-03
   8  -3.3886E-03 -2.0722E-02 -0.1122     -0.5151      -2.099      -8.549      -2.099     -0.5151     -0.1125     -2.3793E-02
   9   2.3030E-03  2.1113E-03 -1.3178E-02 -0.1137     -0.5197      -1.692     -0.5197     -0.1135     -1.2598E-02  3.6399E-03
  10   1.0512E-02  3.3946E-02  0.1176      0.3673       1.059      0.9966       1.059      0.3677      0.1195      4.2056E-02
  11   9.6607E-03  3.0125E-02  9.7542E-02  0.2637      0.5418      0.5946      0.5419      0.2641      9.9295E-02  3.7555E-02
  12   5.3328E-03  1.5733E-02  4.7707E-02  0.1185      0.2185      0.2502      0.2185      0.1187      4.8707E-02  1.9795E-02
  13   2.1774E-03  6.0958E-03  1.7491E-02  4.0916E-02  7.1254E-02  8.2587E-02  7.1273E-02  4.1012E-02  1.7912E-02  7.7355E-03
  14   7.2814E-04  1.9425E-03  5.3127E-03  1.1847E-02  1.9835E-02  2.3036E-02  1.9843E-02  1.1881E-02  5.4571E-03  2.4840E-03
  15   2.5034E-04  6.3690E-04  1.6646E-03  3.5569E-03  5.7649E-03  6.6812E-03  5.7676E-03  3.5693E-03  1.7156E-03  8.2061E-04

 HEAD WILL BE SAVED ON UNIT 1043 AT END OF TIME STEP   30, STRESS PERIOD    2


  VOLUME BUDGET FOR ENTIRE MODEL AT END OF TIME STEP   30, STRESS PERIOD   2
  ---------------------------------------------------------------------------------------------------

     CUMULATIVE VOLUME      L**3       RATES FOR THIS TIME STEP      L**3/T          PACKAGE NAME    
     ------------------                 ------------------------                     ----------------

           IN:                                      IN:
           ---                                      ---
              STO-SS =          16.1932                STO-SS =       2.9950E-02     STORAGE                          
              STO-SY =       40998.7516                STO-SY =          63.1830     STORAGE                          
                 WEL =           0.0000                   WEL =           0.0000     WEL-1                            
                 API =       76090.8271                   API =         220.1477     MAR                              
                 CHD =       2.8247E-08                   CHD =           0.0000     CHD_0                            

            TOTAL IN =      117105.7719              TOTAL IN =         283.3606

          OUT:                                     OUT:
          ----                                     ----
              STO-SS =          21.3707                STO-SS =       3.2470E-02     STORAGE                          
              STO-SY =       40993.5741                STO-SY =          63.1804     STORAGE                          
                 WEL =       76090.8271                   WEL =         220.1477     WEL-1                            
                 API =           0.0000                   API =           0.0000     MAR                              
                 CHD =       3.0388E-08                   CHD =           0.0000     CHD_0                            

           TOTAL OUT =      117105.7719             TOTAL OUT =         283.3606

            IN - OUT =       8.0239E-08              IN - OUT =      -3.5895E-09

 PERCENT DISCREPANCY =           0.00     PERCENT DISCREPANCY =          -0.00




         TIME SUMMARY AT END OF TIME STEP   30 IN STRESS PERIOD    2
                    SECONDS     MINUTES      HOURS       DAYS        YEARS
                    -----------------------------------------------------------
   TIME STEP LENGTH 8.64000E+05  14400.      240.00      10.000     2.73785E-02
 STRESS PERIOD TIME 2.59200E+07 4.32000E+05  7200.0      300.00     0.82136    
         TOTAL TIME 2.60064E+07 4.33440E+05  7224.0      301.00     0.82409    


end timestep


start timestep kper="2" kstp="31" mode="normal"

 UBDSV1 SAVING           STO-SS ON UNIT   1042 AT TIME STEP     31, STRESS PERIOD      2
 UBDSV1 SAVING           STO-SY ON UNIT   1042 AT TIME STEP     31, STRESS PERIOD      2
 UBDSV1 SAVING     FLOW-JA-FACE ON UNIT   1042 AT TIME STEP     31, STRESS PERIOD      2
 UBDSV06 SAVING       DATA-SPDIS IN MODEL GWF              PACKAGE NPF             CONNECTED TO MODEL GWF              PACKAGE NPF              ON UNIT   1042 AT TIME STEP     31, STRESS PERIOD      2
 UBDSV06 SAVING              WEL IN MODEL GWF              PACKAGE GWF             CONNECTED TO MODEL GWF              PACKAGE WEL-1            ON UNIT   1042 AT TIME STEP     31, STRESS PERIOD      2
 UBDSV06 SAVING              API IN MODEL GWF              PACKAGE GWF             CONNECTED TO MODEL GWF              PACKAGE MAR              ON UNIT   1042 AT TIME STEP     31, STRESS PERIOD      2
 UBDSV06 SAVING              CHD IN MODEL GWF              PACKAGE GWF             CONNECTED TO MODEL GWF              PACKAGE CHD_0            ON UNIT   1042 AT TIME STEP     31, STRESS PERIOD      2

    CALCULATED INTERCELL FLOW FOR PERIOD 2 STEP 31
(1,1,1): (1,1,2) 4.879214E-03 (1,2,1) 6.027134E-03
(1,1,2): (1,1,1) -4.879214E-03 (1,1,3) 1.279888E-02 (1,2,2) 1.615436E-02
(1,1,3): (1,1,2) -1.279888E-02 (1,1,4) 2.327173E-02 (1,2,3) 4.451990E-02
(1,1,4): (1,1,3) -2.327173E-02 (1,1,5) 2.697250E-02 (1,2,4) 0.100385
(1,1,5): (1,1,4) -2.697250E-02 (1,1,6) 1.123626E-02 (1,2,5) 0.170147
(1,1,6): (1,1,5) -1.123626E-02 (1,1,7) -1.119959E-02 (1,2,6) 0.197934
(1,1,7): (1,1,6) 1.119959E-02 (1,1,8) -2.684056E-02 (1,2,7) 0.170206
(1,1,8): (1,1,7) 2.684056E-02 (1,1,9) -2.276592E-02 (1,2,8) 0.100669
(1,1,9): (1,1,8) 2.276592E-02 (1,1,10) -1.108893E-02 (1,2,9) 4.571559E-02
(1,1,10): (1,1,9) 1.108893E-02 (1,2,10) 2.064311E-02
(1,2,1): (1,1,1) -6.027134E-03 (1,2,2) 1.500633E-02 (1,3,1) 1.798810E-02
(1,2,2): (1,1,2) -1.615436E-02 (1,2,1) -1.500633E-02 (1,2,3) 4.116346E-02 (1,3,2) 5.066903E-02
(1,2,3): (1,1,3) -4.451990E-02 (1,2,2) -4.116346E-02 (1,2,4) 7.912526E-02 (1,3,3) 0.147160
(1,2,4): (1,1,4) -0.100385 (1,2,3) -7.912526E-02 (1,2,5) 9.668347E-02 (1,3,4) 0.351180
(1,2,5): (1,1,5) -0.170147 (1,2,4) -9.668347E-02 (1,2,6) 3.897955E-02 (1,3,5) 0.626816
(1,2,6): (1,1,6) -0.197934 (1,2,5) -3.897955E-02 (1,2,7) -3.888364E-02 (1,3,6) 0.728696
(1,2,7): (1,1,7) -0.170206 (1,2,6) 3.888364E-02 (1,2,8) -9.632690E-02 (1,3,7) 0.626982
(1,2,8): (1,1,8) -0.100669 (1,2,7) 9.632690E-02 (1,2,9) -7.770684E-02 (1,3,8) 0.351986
(1,2,9): (1,1,9) -4.571559E-02 (1,2,8) 7.770684E-02 (1,2,10) -3.615902E-02 (1,3,9) 0.150645
(1,2,10): (1,1,10) -2.064311E-02 (1,2,9) 3.615902E-02 (1,3,10) 6.424039E-02
(1,3,1): (1,2,1) -1.798810E-02 (1,3,2) 4.768629E-02 (1,4,1) 3.857783E-02
(1,3,2): (1,2,2) -5.066903E-02 (1,3,1) -4.768629E-02 (1,3,3) 0.137645 (1,4,2) 0.116440
(1,3,3): (1,2,3) -0.147160 (1,3,2) -0.137645 (1,3,4) 0.283008 (1,4,3) 0.365456
(1,3,4): (1,2,4) -0.351180 (1,3,3) -0.283008 (1,3,5) 0.371631 (1,4,4) 0.956229
(1,3,5): (1,2,5) -0.626816 (1,3,4) -0.371631 (1,3,6) 0.140277 (1,4,5) 1.88136
(1,3,6): (1,2,6) -0.728696 (1,3,5) -0.140277 (1,3,7) -0.140016 (1,4,6) 2.16417
(1,3,7): (1,2,7) -0.626982 (1,3,6) 0.140016 (1,3,8) -0.370633 (1,4,7) 1.88169
(1,3,8): (1,2,8) -0.351986 (1,3,7) 0.370633 (1,3,9) -0.278902 (1,4,8) 0.957857
(1,3,9): (1,2,9) -0.150645 (1,3,8) 0.278902 (1,3,10) -0.122540 (1,4,9) 0.372700
(1,3,10): (1,2,10) -6.424039E-02 (1,3,9) 0.122540 (1,4,10) 0.146019
(1,4,1): (1,3,1) -3.857783E-02 (1,4,2) 0.125556 (1,5,1) 5.259486E-02
(1,4,2): (1,3,2) -0.116440 (1,4,1) -0.125556 (1,4,3) 0.386713 (1,5,2) 0.175170
(1,4,3): (1,3,3) -0.365456 (1,4,2) -0.386713 (1,4,4) 0.873307 (1,5,3) 0.622081
(1,4,4): (1,3,4) -0.956229 (1,4,3) -0.873307 (1,4,5) 1.29166 (1,5,4) 1.92680
(1,4,5): (1,3,5) -1.88136 (1,4,4) -1.29166 (1,4,6) 0.418562 (1,5,5) 4.73534
(1,4,6): (1,3,6) -2.16417 (1,4,5) -0.418562 (1,4,7) -0.417969 (1,5,6) 5.20335
(1,4,7): (1,3,7) -1.88169 (1,4,6) 0.417969 (1,4,8) -1.28935 (1,5,7) 4.73578
(1,4,8): (1,3,8) -0.957857 (1,4,7) 1.28935 (1,4,9) -0.863525 (1,5,8) 1.92886
(1,4,9): (1,3,9) -0.372700 (1,4,8) 0.863525 (1,4,10) -0.349168 (1,5,9) 0.631524
(1,4,10): (1,3,10) -0.146019 (1,4,9) 0.349168 (1,5,10) 0.216245
(1,5,1): (1,4,1) -5.259486E-02 (1,5,2) 0.248220 (1,6,1) 1.190333E-02
(1,5,2): (1,4,2) -0.175170 (1,5,1) -0.248220 (1,5,3) 0.834548 (1,6,2) 5.760340E-02
(1,5,3): (1,4,3) -0.622081 (1,5,2) -0.834548 (1,5,4) 2.18111 (1,6,3) 0.329285
(1,5,4): (1,4,4) -1.92680 (1,5,3) -2.18111 (1,5,5) 4.08467 (1,6,4) 1.86524
(1,5,5): (1,4,5) -4.73534 (1,5,4) -4.08467 (1,5,6) 0.870483 (1,6,5) 10.3193
(1,5,6): (1,4,6) -5.20335 (1,5,5) -0.870483 (1,5,7) -0.869462 (1,6,6) 9.48415
(1,5,7): (1,4,7) -4.73578 (1,5,6) 0.869462 (1,5,8) -4.08065 (1,6,7) 10.3194
(1,5,8): (1,4,8) -1.92886 (1,5,7) 4.08065 (1,5,9) -2.16369 (1,6,8) 1.86559
(1,5,9): (1,4,9) -0.631524 (1,5,8) 2.16369 (1,5,10) -0.764985 (1,6,9) 0.331039
(1,5,10): (1,4,10) -0.216245 (1,5,9) 0.764985 (1,6,10) 6.728078E-02
(1,6,1): (1,5,1) -1.190333E-02 (1,6,2) 0.294027 (1,7,1) -9.573327E-02
(1,6,2): (1,5,2) -5.760340E-02 (1,6,1) -0.294027 (1,6,3) 1.10828 (1,7,2) -0.368329
(1,6,3): (1,5,3) -0.329285 (1,6,2) -1.10828 (1,6,4) 3.74299 (1,7,3) -1.53899
(1,6,4): (1,5,4) -1.86524 (1,6,3) -3.74299 (1,6,5) 12.6838 (1,7,4) -6.02247
(1,6,5): (1,5,5) -10.3193 (1,6,4) -12.6838 (1,6,6) 9.403089E-02 (1,7,5) -22.8727
(1,6,6): (1,5,6) -9.48415 (1,6,5) -9.403089E-02 (1,6,7) -9.289366E-02 (1,7,6) -36.1810
(1,6,7): (1,5,7) -10.3194 (1,6,6) 9.289366E-02 (1,6,8) -12.6793 (1,7,7) -22.8734
(1,6,8): (1,5,8) -1.86559 (1,6,7) 12.6793 (1,6,9) -3.72387 (1,7,8) -6.02567
(1,6,9): (1,5,9) -0.331039 (1,6,8) 3.72387 (1,6,10) -1.03053 (1,7,9) -1.55485
(1,6,10): (1,5,10) -6.728078E-02 (1,6,9) 1.03053 (1,7,10) -0.445329
(1,7,1): (1,6,1) 9.573327E-02 (1,7,2) 2.163210E-02 (1,8,1) -7.112895E-02
(1,7,2): (1,6,2) 0.368329 (1,7,1) -2.163210E-02 (1,7,3) -5.753966E-02 (1,8,2) -0.276135
(1,7,3): (1,6,3) 1.53899 (1,7,2) 5.753966E-02 (1,7,4) -0.653312 (1,8,3) -1.16720
(1,7,4): (1,6,4) 6.02247 (1,7,3) 0.653312 (1,7,5) -3.03127 (1,8,4) -4.58824
(1,7,5): (1,6,5) 22.8727 (1,7,4) 3.03127 (1,7,6) -10.9475 (1,8,5) -16.8344
(1,7,6): (1,6,6) 36.1810 (1,7,5) 10.9475 (1,7,7) 10.9481 (1,8,6) -59.8515
(1,7,7): (1,6,7) 22.8734 (1,7,6) -10.9481 (1,7,8) 3.03302 (1,8,7) -16.8349
(1,7,8): (1,6,8) 6.02567 (1,7,7) -3.03302 (1,7,9) 0.659231 (1,8,8) -4.59050
(1,7,9): (1,6,9) 1.55485 (1,7,8) -0.659231 (1,7,10) 7.342701E-02 (1,8,9) -1.17880
(1,7,10): (1,6,10) 0.445329 (1,7,9) -7.342701E-02 (1,8,10) -0.333270
(1,8,1): (1,7,1) 7.112895E-02 (1,8,2) -0.183189 (1,9,1) 6.056275E-02
(1,8,2): (1,7,2) 0.276135 (1,8,1) 0.183189 (1,8,3) -0.946656 (1,9,2) 0.237248
(1,8,3): (1,7,3) 1.16720 (1,8,2) 0.946656 (1,8,4) -4.05662 (1,9,3) 1.00765
(1,8,4): (1,7,4) 4.58824 (1,8,3) 4.05662 (1,8,5) -15.0759 (1,9,4) 3.98601
(1,8,5): (1,7,5) 16.8344 (1,8,4) 15.0759 (1,8,6) -50.7249 (1,9,5) 14.9122
(1,8,6): (1,7,6) 59.8515 (1,8,5) 50.7249 (1,8,7) 50.7251 (1,9,6) 56.6432
(1,8,7): (1,7,7) 16.8349 (1,8,6) -50.7251 (1,8,8) 15.0758 (1,9,7) 14.9125
(1,8,8): (1,7,8) 4.59050 (1,8,7) -15.0758 (1,8,9) 4.05305 (1,9,8) 3.98786
(1,8,9): (1,7,9) 1.17880 (1,8,8) -4.05305 (1,8,10) 0.916757 (1,9,9) 1.01740
(1,8,10): (1,7,10) 0.333270 (1,8,9) -0.916757 (1,9,10) 0.285987
(1,9,1): (1,8,1) -6.056275E-02 (1,9,2) -6.598935E-03 (1,10,1) 8.835065E-02
(1,9,2): (1,8,2) -0.237248 (1,9,1) 6.598935E-03 (1,9,3) -0.176724 (1,10,2) 0.334910
(1,9,3): (1,8,3) -1.00765 (1,9,2) 0.176724 (1,9,4) -1.07618 (1,10,3) 1.35841
(1,9,4): (1,8,4) -3.98601 (1,9,3) 1.07618 (1,9,5) -4.13232 (1,10,4) 5.03094
(1,9,5): (1,8,5) -14.9122 (1,9,4) 4.13232 (1,9,6) -11.1094 (1,10,5) 17.4122
(1,9,6): (1,8,6) -56.6432 (1,9,5) 11.1094 (1,9,7) 11.1099 (1,10,6) 29.4485
(1,9,7): (1,8,7) -14.9125 (1,9,6) -11.1099 (1,9,8) 4.13377 (1,10,7) 17.4128
(1,9,8): (1,8,8) -3.98786 (1,9,7) -4.13377 (1,9,9) 1.08068 (1,10,8) 5.03385
(1,9,9): (1,8,9) -1.01740 (1,9,8) -1.08068 (1,9,10) 0.186072 (1,10,9) 1.37304
(1,9,10): (1,8,10) -0.285987 (1,9,9) -0.186072 (1,10,10) 0.405861
(1,10,1): (1,9,1) -8.835065E-02 (1,10,2) 0.239728 (1,11,1) -6.957022E-03
(1,10,2): (1,9,2) -0.334910 (1,10,1) -0.239728 (1,10,3) 0.841939 (1,11,2) -3.186183E-02
(1,10,3): (1,9,3) -1.35841 (1,10,2) -0.841939 (1,10,4) 2.52295 (1,11,3) -0.176099
(1,10,4): (1,9,4) -5.03094 (1,10,3) -2.52295 (1,10,5) 7.43667 (1,11,4) -0.981406
(1,10,5): (1,9,5) -17.4122 (1,10,4) -7.43667 (1,10,6) -0.745160 (1,11,5) -5.46228
(1,10,6): (1,9,6) -29.4485 (1,10,5) 0.745160 (1,10,7) 0.746127 (1,11,6) -4.12540
(1,10,7): (1,9,7) -17.4128 (1,10,6) -0.746127 (1,10,8) -7.43280 (1,11,7) -5.46235
(1,10,8): (1,9,8) -5.03385 (1,10,7) 7.43280 (1,10,9) -2.50644 (1,11,8) -0.981618
(1,10,9): (1,9,9) -1.37304 (1,10,8) 2.50644 (1,10,10) -0.775836 (1,11,9) -0.177151
(1,10,10): (1,9,10) -0.405861 (1,10,9) 0.775836 (1,11,10) -3.741167E-02
(1,11,1): (1,10,1) 6.957022E-03 (1,11,2) 0.214771 (1,12,1) -4.596778E-02
(1,11,2): (1,10,2) 3.186183E-02 (1,11,1) -0.214771 (1,11,3) 0.696765 (1,12,2) -0.149056
(1,11,3): (1,10,3) 0.176099 (1,11,2) -0.696765 (1,11,4) 1.70614 (1,12,3) -0.507862
(1,11,4): (1,10,4) 0.981406 (1,11,3) -1.70614 (1,11,5) 2.88419 (1,12,4) -1.47615
(1,11,5): (1,10,5) 5.46228 (1,11,4) -2.88419 (1,11,6) 0.543558 (1,12,5) -3.33796
(1,11,6): (1,10,6) 4.12540 (1,11,5) -0.543558 (1,11,7) -0.542660 (1,12,6) -3.55937
(1,11,7): (1,10,7) 5.46235 (1,11,6) 0.542660 (1,11,8) -2.88061 (1,12,7) -3.33833
(1,11,8): (1,10,8) 0.981618 (1,11,7) 2.88061 (1,11,9) -1.69061 (1,12,8) -1.47796
(1,11,9): (1,10,9) 0.177151 (1,11,8) 1.69061 (1,11,10) -0.635282 (1,12,9) -0.516180
(1,11,10): (1,10,10) 3.741167E-02 (1,11,9) 0.635282 (1,12,10) -0.184801
(1,12,1): (1,11,1) 4.596778E-02 (1,12,2) 0.111615 (1,13,1) -3.465299E-02
(1,12,2): (1,11,2) 0.149056 (1,12,1) -0.111615 (1,12,3) 0.337298 (1,13,2) -0.103248
(1,12,3): (1,11,3) 0.507862 (1,12,2) -0.337298 (1,12,4) 0.735760 (1,13,3) -0.317621
(1,12,4): (1,11,4) 1.47615 (1,12,3) -0.735760 (1,12,5) 1.02983 (1,13,4) -0.805677
(1,12,5): (1,11,5) 3.33796 (1,12,4) -1.02983 (1,12,6) 0.327657 (1,13,5) -1.52220
(1,12,6): (1,11,6) 3.55937 (1,12,5) -0.327657 (1,12,7) -0.327123 (1,13,6) -1.73389
(1,12,7): (1,11,7) 3.33833 (1,12,6) 0.327123 (1,12,8) -1.02774 (1,13,7) -1.52250
(1,12,8): (1,11,8) 1.47796 (1,12,7) 1.02774 (1,12,9) -0.726908 (1,13,8) -0.807143
(1,12,9): (1,11,9) 0.516180 (1,12,8) 0.726908 (1,12,10) -0.303518 (1,13,9) -0.324150
(1,12,10): (1,11,10) 0.184801 (1,12,9) 0.303518 (1,13,10) -0.129755
(1,13,1): (1,12,1) 3.465299E-02 (1,13,2) 4.301516E-02 (1,14,1) -1.633820E-02
(1,13,2): (1,12,2) 0.103248 (1,13,1) -4.301516E-02 (1,13,3) 0.122883 (1,14,2) -4.570336E-02
(1,13,3): (1,12,3) 0.317621 (1,13,2) -0.122883 (1,13,4) 0.248035 (1,14,3) -0.131363
(1,13,4): (1,12,4) 0.805677 (1,13,3) -0.248035 (1,13,5) 0.316643 (1,14,4) -0.308651
(1,13,5): (1,12,5) 1.52220 (1,13,4) -0.316643 (1,13,6) 0.118729 (1,14,5) -0.540480
(1,13,6): (1,12,6) 1.73389 (1,13,5) -0.118729 (1,13,7) -0.118491 (1,14,6) -0.625376
(1,13,7): (1,12,7) 1.52250 (1,13,6) 0.118491 (1,13,8) -0.315732 (1,14,7) -0.540631
(1,13,8): (1,12,8) 0.807143 (1,13,7) 0.315732 (1,13,9) -0.244292 (1,14,8) -0.309385
(1,13,9): (1,12,9) 0.324150 (1,13,8) 0.244292 (1,13,10) -0.109162 (1,14,9) -0.134535
(1,13,10): (1,12,10) 0.129755 (1,13,9) 0.109162 (1,14,10) -5.801280E-02
(1,14,1): (1,13,1) 1.633820E-02 (1,14,2) 1.365079E-02 (1,15,1) -5.504123E-03
(1,14,2): (1,13,2) 4.570336E-02 (1,14,1) -1.365079E-02 (1,14,3) 3.723003E-02 (1,15,2) -1.469269E-02
(1,14,3): (1,13,3) 0.131363 (1,14,2) -3.723003E-02 (1,14,4) 7.085354E-02 (1,15,3) -4.025501E-02
(1,14,4): (1,13,4) 0.308651 (1,14,3) -7.085354E-02 (1,14,5) 8.532313E-02 (1,15,4) -9.001349E-02
(1,14,5): (1,13,5) 0.540480 (1,14,4) -8.532313E-02 (1,14,6) 3.425267E-02 (1,15,5) -0.151096
(1,14,6): (1,13,6) 0.625376 (1,14,5) -3.425267E-02 (1,14,7) -3.416485E-02 (1,15,6) -0.175299
(1,14,7): (1,13,7) 0.540631 (1,14,6) 3.416485E-02 (1,14,8) -8.499636E-02 (1,15,7) -0.151150
(1,14,8): (1,13,8) 0.309385 (1,14,7) 8.499636E-02 (1,14,9) -6.955492E-02 (1,15,8) -9.027313E-02
(1,14,9): (1,13,9) 0.134535 (1,14,8) 6.955492E-02 (1,14,10) -3.265887E-02 (1,15,9) -4.134830E-02
(1,14,10): (1,13,10) 5.801280E-02 (1,14,9) 3.265887E-02 (1,15,10) -1.878834E-02
(1,15,1): (1,14,1) 5.504123E-03 (1,15,2) 4.462313E-03
(1,15,2): (1,14,2) 1.469269E-02 (1,15,1) -4.462313E-03 (1,15,3) 1.166848E-02
(1,15,3): (1,14,3) 4.025501E-02 (1,15,2) -1.166848E-02 (1,15,4) 2.110457E-02
(1,15,4): (1,14,4) 9.001349E-02 (1,15,3) -2.110457E-02 (1,15,5) 2.428047E-02
(1,15,5): (1,14,5) 0.151096 (1,15,4) -2.428047E-02 (1,15,6) 1.008318E-02
(1,15,6): (1,14,6) 0.175299 (1,15,5) -1.008318E-02 (1,15,7) -1.004949E-02
(1,15,7): (1,14,7) 0.151150 (1,15,6) 1.004949E-02 (1,15,8) -2.415925E-02
(1,15,8): (1,14,8) 9.027313E-02 (1,15,7) 2.415925E-02 (1,15,9) -2.064019E-02
(1,15,9): (1,14,9) 4.134830E-02 (1,15,8) 2.064019E-02 (1,15,10) -1.010087E-02
(1,15,10): (1,14,10) 1.878834E-02 (1,15,9) 1.010087E-02

 WEL PACKAGE (WEL-1) FLOW RATES   PERIOD      2   STEP       31
 ----------------------------------------------------------------------------------------
   NUMBER   CELLID                    RATE       NAME                                    
 ----------------------------------------------------------------------------------------
     1      (1,8,6)              -219.16238      WEL                                     
 ----------------------------------------------------------------------------------------




 API PACKAGE (MAR) FLOW RATES   PERIOD      2   STEP       31
 -----------------------------------------------
   NUMBER   CELLID                    RATE      
 -----------------------------------------------
     1      (1,6,5)               46.666667     
     2      (1,6,6)               46.666667     
     3      (1,6,7)               46.666667     
     4      (1,10,5)              26.387461     
     5      (1,10,6)              26.387461     
     6      (1,10,7)              26.387461     
 -----------------------------------------------



1
  HEAD IN LAYER   1 AT END OF TIME STEP  31 IN STRESS PERIOD    2
  ---------------------------------------------------------------------------

            1           2           3           4           5           6           7           8           9          10
 ........................................................................................................................
   1   3.2709E-04  8.1497E-04  2.0946E-03  4.4207E-03  7.1161E-03  8.2388E-03  7.1197E-03  4.4376E-03  2.1620E-03  1.0533E-03
   2   9.2974E-04  2.4300E-03  6.5437E-03  1.4445E-02  2.4090E-02  2.7977E-02  2.4099E-02  1.4490E-02  6.7305E-03  3.1170E-03
   3   2.7281E-03  7.4931E-03  2.1228E-02  4.9390E-02  8.6236E-02  0.1001      8.6261E-02  4.9515E-02  2.1762E-02  9.5349E-03
   4   6.5833E-03  1.9115E-02  5.7565E-02  0.1437      0.2694      0.3100      0.2695      0.1439      5.8814E-02  2.4102E-02
   5   1.1837E-02  3.6568E-02  0.1190      0.3302      0.7115      0.7922      0.7116      0.3307      0.1212      4.5628E-02
   6   1.3025E-02  4.2304E-02  0.1515      0.5077       1.601       1.609       1.601      0.5082      0.1538      5.2321E-02
   7   3.4645E-03  5.6265E-03 -1.2425E-04 -6.5456E-02 -0.3706      -1.507     -0.3705     -6.5235E-02  6.8326E-04  8.0201E-03
   8  -3.6459E-03 -2.1972E-02 -0.1168     -0.5273      -2.119      -8.555      -2.119     -0.5273     -0.1172     -2.5280E-02
   9   2.4089E-03  1.7491E-03 -1.5920E-02 -0.1237     -0.5421      -1.717     -0.5421     -0.1235     -1.5292E-02  3.3091E-03
  10   1.1234E-02  3.5123E-02  0.1183      0.3618       1.036      0.9682       1.036      0.3623      0.1204      4.3718E-02
  11   1.0539E-02  3.1948E-02  0.1009      0.2671      0.5407      0.5920      0.5408      0.2675      0.1029      3.9994E-02
  12   5.9472E-03  1.7090E-02  5.0649E-02  0.1233      0.2241      0.2560      0.2241      0.1236      5.1783E-02  2.1587E-02
  13   2.4839E-03  6.7825E-03  1.9047E-02  4.3743E-02  7.5171E-02  8.6941E-02  7.5195E-02  4.3857E-02  1.9534E-02  8.6396E-03
  14   8.5051E-04  2.2153E-03  5.9361E-03  1.3012E-02  2.1526E-02  2.4943E-02  2.1535E-02  1.3054E-02  6.1072E-03  2.8433E-03
  15   3.0014E-04  7.4634E-04  1.9130E-03  4.0226E-03  6.4491E-03  7.4566E-03  6.4524E-03  4.0381E-03  1.9749E-03  9.6498E-04

 HEAD WILL BE SAVED ON UNIT 1043 AT END OF TIME STEP   31, STRESS PERIOD    2


  VOLUME BUDGET FOR ENTIRE MODEL AT END OF TIME STEP   31, STRESS PERIOD   2
  ---------------------------------------------------------------------------------------------------

     CUMULATIVE VOLUME      L**3       RATES FOR THIS TIME STEP      L**3/T          PACKAGE NAME    
     ------------------                 ------------------------                     ----------------

           IN:                                      IN:
           ---                                      ---
              STO-SS =          16.4855                STO-SS =       2.9231E-02     STORAGE                          
              STO-SY =       41614.1881                STO-SY =          61.5437     STORAGE                          
                 WEL =           0.0000                   WEL =           0.0000     WEL-1                            
                 API =       78282.4510                   API =         219.1624     MAR                              
                 CHD =       2.8247E-08                   CHD =           0.0000     CHD_0                            

            TOTAL IN =      119913.1246              TOTAL IN =         280.7353

          OUT:                                     OUT:
          ----                                     ----
              STO-SS =          21.6869                STO-SS =       3.1618E-02     STORAGE                          
              STO-SY =       41608.9868                STO-SY =          61.5413     STORAGE                          
                 WEL =       78282.4510                   WEL =         219.1624     WEL-1                            
                 API =           0.0000                   API =           0.0000     MAR                              
                 CHD =       3.0388E-08                   CHD =           0.0000     CHD_0                            

           TOTAL OUT =      119913.1246             TOTAL OUT =         280.7353

            IN - OUT =       4.4514E-08              IN - OUT =      -3.5714E-09

 PERCENT DISCREPANCY =           0.00     PERCENT DISCREPANCY =          -0.00




         TIME SUMMARY AT END OF TIME STEP   31 IN STRESS PERIOD    2
                    SECONDS     MINUTES      HOURS       DAYS        YEARS
                    -----------------------------------------------------------
   TIME STEP LENGTH 8.64000E+05  14400.      240.00      10.000     2.73785E-02
 STRESS PERIOD TIME 2.67840E+07 4.46400E+05  7440.0      310.00     0.84873    
         TOTAL TIME 2.68704E+07 4.47840E+05  7464.0      311.00     0.85147    


end timestep


start timestep kper="2" kstp="32" mode="normal"

 UBDSV1 SAVING           STO-SS ON UNIT   1042 AT TIME STEP     32, STRESS PERIOD      2
 UBDSV1 SAVING           STO-SY ON UNIT   1042 AT TIME STEP     32, STRESS PERIOD      2
 UBDSV1 SAVING     FLOW-JA-FACE ON UNIT   1042 AT TIME STEP     32, STRESS PERIOD      2
 UBDSV06 SAVING       DATA-SPDIS IN MODEL GWF              PACKAGE NPF             CONNECTED TO MODEL GWF              PACKAGE NPF              ON UNIT   1042 AT TIME STEP     32, STRESS PERIOD      2
 UBDSV06 SAVING              WEL IN MODEL GWF              PACKAGE GWF             CONNECTED TO MODEL GWF              PACKAGE WEL-1            ON UNIT   1042 AT TIME STEP     32, STRESS PERIOD      2
 UBDSV06 SAVING              API IN MODEL GWF              PACKAGE GWF             CONNECTED TO MODEL GWF              PACKAGE MAR              ON UNIT   1042 AT TIME STEP     32, STRESS PERIOD      2
 UBDSV06 SAVING              CHD IN MODEL GWF              PACKAGE GWF             CONNECTED TO MODEL GWF              PACKAGE CHD_0            ON UNIT   1042 AT TIME STEP     32, STRESS PERIOD      2

    CALCULATED INTERCELL FLOW FOR PERIOD 2 STEP 32
(1,1,1): (1,1,2) 5.602420E-03 (1,2,1) 6.906359E-03
(1,1,2): (1,1,1) -5.602420E-03 (1,1,3) 1.447051E-02 (1,2,2) 1.810935E-02
(1,1,3): (1,1,2) -1.447051E-02 (1,1,4) 2.588167E-02 (1,2,3) 4.900006E-02
(1,1,4): (1,1,3) -2.588167E-02 (1,1,5) 2.961456E-02 (1,2,4) 0.108851
(1,1,5): (1,1,4) -2.961456E-02 (1,1,6) 1.234141E-02 (1,2,5) 0.182638
(1,1,6): (1,1,5) -1.234141E-02 (1,1,7) -1.229536E-02 (1,2,6) 0.212075
(1,1,7): (1,1,6) 1.229536E-02 (1,1,8) -2.945291E-02 (1,2,7) 0.182710
(1,1,8): (1,1,7) 2.945291E-02 (1,1,9) -2.527547E-02 (1,2,8) 0.109188
(1,1,9): (1,1,8) 2.527547E-02 (1,1,10) -1.246475E-02 (1,2,9) 5.038924E-02
(1,1,10): (1,1,9) 1.246475E-02 (1,2,10) 2.321868E-02
(1,2,1): (1,1,1) -6.906359E-03 (1,2,2) 1.680527E-02 (1,3,1) 2.019946E-02
(1,2,2): (1,1,2) -1.810935E-02 (1,2,1) -1.680527E-02 (1,2,3) 4.536010E-02 (1,3,2) 5.562997E-02
(1,2,3): (1,1,3) -4.900006E-02 (1,2,2) -4.536010E-02 (1,2,4) 8.571888E-02 (1,3,3) 0.158569
(1,2,4): (1,1,4) -0.108851 (1,2,3) -8.571888E-02 (1,2,5) 0.103344 (1,3,4) 0.372662
(1,2,5): (1,1,5) -0.182638 (1,2,4) -0.103344 (1,2,6) 4.172808E-02 (1,3,5) 0.658213
(1,2,6): (1,1,6) -0.212075 (1,2,5) -4.172808E-02 (1,2,7) -4.161034E-02 (1,3,6) 0.764023
(1,2,7): (1,1,7) -0.182710 (1,2,6) 4.161034E-02 (1,2,8) -0.102917 (1,3,7) 0.658411
(1,2,8): (1,1,8) -0.109188 (1,2,7) 0.102917 (1,2,9) -8.405931E-02 (1,3,8) 0.373600
(1,2,9): (1,1,9) -5.038924E-02 (1,2,8) 8.405931E-02 (1,2,10) -3.963240E-02 (1,3,9) 0.162540
(1,2,10): (1,1,10) -2.321868E-02 (1,2,9) 3.963240E-02 (1,3,10) 7.077065E-02
(1,3,1): (1,2,1) -2.019946E-02 (1,3,2) 5.223459E-02 (1,4,1) 4.228553E-02
(1,3,2): (1,2,2) -5.562997E-02 (1,3,1) -5.223459E-02 (1,3,3) 0.148288 (1,4,2) 0.124754
(1,3,3): (1,2,3) -0.158569 (1,3,2) -0.148288 (1,3,4) 0.299658 (1,4,3) 0.384344
(1,3,4): (1,2,4) -0.372662 (1,3,3) -0.299658 (1,3,5) 0.388142 (1,4,4) 0.990746
(1,3,5): (1,2,5) -0.658213 (1,3,4) -0.388142 (1,3,6) 0.146904 (1,4,5) 1.92964
(1,3,6): (1,2,6) -0.764023 (1,3,5) -0.146904 (1,3,7) -0.146590 (1,4,6) 2.21733
(1,3,7): (1,2,7) -0.658411 (1,3,6) 0.146590 (1,3,8) -0.386972 (1,4,7) 1.93003
(1,3,8): (1,2,8) -0.373600 (1,3,7) 0.386972 (1,3,9) -0.294955 (1,4,8) 0.992598
(1,3,9): (1,2,9) -0.162540 (1,3,8) 0.294955 (1,3,10) -0.131374 (1,4,9) 0.392406
(1,3,10): (1,2,10) -7.077065E-02 (1,3,9) 0.131374 (1,4,10) 0.156974
(1,4,1): (1,3,1) -4.228553E-02 (1,4,2) 0.134712 (1,5,1) 5.597438E-02
(1,4,2): (1,3,2) -0.124754 (1,4,1) -0.134712 (1,4,3) 0.407938 (1,5,2) 0.182342
(1,4,3): (1,3,3) -0.384344 (1,4,2) -0.407938 (1,4,4) 0.905561 (1,5,3) 0.636796
(1,4,4): (1,3,4) -0.990746 (1,4,3) -0.905561 (1,4,5) 1.32171 (1,5,4) 1.94885
(1,4,5): (1,3,5) -1.92964 (1,4,4) -1.32171 (1,4,6) 0.429896 (1,5,5) 4.75705
(1,4,6): (1,3,6) -2.21733 (1,4,5) -0.429896 (1,4,7) -0.429196 (1,5,6) 5.22332
(1,4,7): (1,3,7) -1.93003 (1,4,6) 0.429196 (1,4,8) -1.31906 (1,5,7) 4.75754
(1,4,8): (1,3,8) -0.992598 (1,4,7) 1.31906 (1,4,9) -0.894580 (1,5,8) 1.95113
(1,4,9): (1,3,9) -0.392406 (1,4,8) 0.894580 (1,4,10) -0.366747 (1,5,9) 0.647003
(1,4,10): (1,3,10) -0.156974 (1,4,9) 0.366747 (1,5,10) 0.225797
(1,5,1): (1,4,1) -5.597438E-02 (1,5,2) 0.261178 (1,6,1) 1.062098E-02
(1,5,2): (1,4,2) -0.182342 (1,5,1) -0.261178 (1,5,3) 0.863393 (1,6,2) 5.306595E-02
(1,5,3): (1,4,3) -0.636796 (1,5,2) -0.863393 (1,5,4) 2.22092 (1,6,3) 0.313896
(1,5,4): (1,4,4) -1.94885 (1,5,3) -2.22092 (1,5,5) 4.11462 (1,6,4) 1.82426
(1,5,5): (1,4,5) -4.75705 (1,5,4) -4.11462 (1,5,6) 0.880162 (1,6,5) 10.2395
(1,5,6): (1,4,6) -5.22332 (1,5,5) -0.880162 (1,5,7) -0.878979 (1,6,6) 9.39179
(1,5,7): (1,4,7) -4.75754 (1,5,6) 0.878979 (1,5,8) -4.11007 (1,6,7) 10.2397
(1,5,8): (1,4,8) -1.95113 (1,5,7) 4.11007 (1,5,9) -2.20173 (1,6,8) 1.82457
(1,5,9): (1,4,9) -0.647003 (1,5,8) 2.20173 (1,5,10) -0.788532 (1,6,9) 0.315432
(1,5,10): (1,4,10) -0.225797 (1,5,9) 0.788532 (1,6,10) 6.169107E-02
(1,6,1): (1,5,1) -1.062098E-02 (1,6,2) 0.303728 (1,7,1) -0.102929
(1,6,2): (1,5,2) -5.306595E-02 (1,6,1) -0.303728 (1,6,3) 1.12627 (1,7,2) -0.387153
(1,6,3): (1,5,3) -0.313896 (1,6,2) -1.12627 (1,6,4) 3.75752 (1,7,3) -1.58827
(1,6,4): (1,5,4) -1.82426 (1,6,3) -3.75752 (1,6,5) 12.6789 (1,7,4) -6.12446
(1,6,5): (1,5,5) -10.2395 (1,6,4) -12.6789 (1,6,6) 9.135331E-02 (1,7,5) -23.0287
(1,6,6): (1,5,6) -9.39179 (1,6,5) -9.135331E-02 (1,6,7) -9.005326E-02 (1,7,6) -36.3293
(1,6,7): (1,5,7) -10.2397 (1,6,6) 9.005326E-02 (1,6,8) -12.6738 (1,7,7) -23.0295
(1,6,8): (1,5,8) -1.82457 (1,6,7) 12.6738 (1,6,9) -3.73679 (1,7,8) -6.12804
(1,6,9): (1,5,9) -0.315432 (1,6,8) 3.73679 (1,6,10) -1.04406 (1,7,9) -1.60560
(1,6,10): (1,5,10) -6.169107E-02 (1,6,9) 1.04406 (1,7,10) -0.469524
(1,7,1): (1,6,1) 0.102929 (1,7,2) 1.973939E-02 (1,8,1) -7.610249E-02
(1,7,2): (1,6,2) 0.387153 (1,7,1) -1.973939E-02 (1,7,3) -6.953105E-02 (1,8,2) -0.289170
(1,7,3): (1,6,3) 1.58827 (1,7,2) 6.953105E-02 (1,7,4) -0.687446 (1,8,3) -1.20145
(1,7,4): (1,6,4) 6.12446 (1,7,3) 0.687446 (1,7,5) -3.07084 (1,8,4) -4.65677
(1,7,5): (1,6,5) 23.0287 (1,7,4) 3.07084 (1,7,6) -10.9302 (1,8,5) -16.9103
(1,7,6): (1,6,6) 36.3293 (1,7,5) 10.9302 (1,7,7) 10.9308 (1,8,6) -59.7761
(1,7,7): (1,6,7) 23.0295 (1,7,6) -10.9308 (1,7,8) 3.07278 (1,8,7) -16.9109
(1,7,8): (1,6,8) 6.12804 (1,7,7) -3.07278 (1,7,9) 0.693833 (1,8,8) -4.65928
(1,7,9): (1,6,9) 1.60560 (1,7,8) -0.693833 (1,7,10) 8.592982E-02 (1,8,9) -1.21405
(1,7,10): (1,6,10) 0.469524 (1,7,9) -8.592982E-02 (1,8,10) -0.349999
(1,8,1): (1,7,1) 7.610249E-02 (1,8,2) -0.193128 (1,9,1) 6.414083E-02
(1,8,2): (1,7,2) 0.289170 (1,8,1) 0.193128 (1,8,3) -0.979808 (1,9,2) 0.245577
(1,8,3): (1,7,3) 1.20145 (1,8,2) 0.979808 (1,8,4) -4.12484 (1,9,3) 1.02433
(1,8,4): (1,7,4) 4.65677 (1,8,3) 4.12484 (1,8,5) -15.1186 (1,9,4) 3.99764
(1,8,5): (1,7,5) 16.9103 (1,8,4) 15.1186 (1,8,6) -50.5092 (1,9,5) 14.8447
(1,8,6): (1,7,6) 59.7761 (1,8,5) 50.5092 (1,8,7) 50.5095 (1,9,6) 56.3287
(1,8,7): (1,7,7) 16.9109 (1,8,6) -50.5095 (1,8,8) 15.1185 (1,9,7) 14.8451
(1,8,8): (1,7,8) 4.65928 (1,8,7) -15.1185 (1,8,9) 4.12097 (1,9,8) 3.99968
(1,8,9): (1,7,9) 1.21405 (1,8,8) -4.12097 (1,8,10) 0.947700 (1,9,9) 1.03483
(1,8,10): (1,7,10) 0.349999 (1,8,9) -0.947700 (1,9,10) 0.296927
(1,9,1): (1,8,1) -6.414083E-02 (1,9,2) -1.178678E-02 (1,10,1) 9.461152E-02
(1,9,2): (1,8,2) -0.245577 (1,9,1) 1.178678E-02 (1,9,3) -0.201397 (1,10,2) 0.350089
(1,9,3): (1,8,3) -1.02433 (1,9,2) 0.201397 (1,9,4) -1.14779 (1,10,3) 1.39183
(1,9,4): (1,8,4) -3.99764 (1,9,3) 1.14779 (1,9,5) -4.24251 (1,10,4) 5.07152
(1,9,5): (1,8,5) -14.8447 (1,9,4) 4.24251 (1,9,6) -11.1048 (1,10,5) 17.3657
(1,9,6): (1,8,6) -56.3287 (1,9,5) 11.1048 (1,9,7) 11.1053 (1,10,6) 29.3350
(1,9,7): (1,8,7) -14.8451 (1,9,6) -11.1053 (1,9,8) 4.24412 (1,10,7) 17.3663
(1,9,8): (1,8,8) -3.99968 (1,9,7) -4.24412 (1,9,9) 1.15257 (1,10,8) 5.07474
(1,9,9): (1,8,9) -1.03483 (1,9,8) -1.15257 (1,9,10) 0.210435 (1,10,9) 1.40776
(1,9,10): (1,8,10) -0.296927 (1,9,9) -0.210435 (1,10,10) 0.425663
(1,10,1): (1,9,1) -9.461152E-02 (1,10,2) 0.243422 (1,11,1) -5.122639E-03
(1,10,2): (1,9,2) -0.350089 (1,10,1) -0.243422 (1,10,3) 0.835100 (1,11,2) -2.475763E-02
(1,10,3): (1,9,3) -1.39183 (1,10,2) -0.835100 (1,10,4) 2.45618 (1,11,3) -0.148325
(1,10,4): (1,9,4) -5.07152 (1,10,3) -2.45618 (1,10,5) 7.23669 (1,11,4) -0.890499
(1,10,5): (1,9,5) -17.3657 (1,10,4) -7.23669 (1,10,6) -0.797026 (1,11,5) -5.22075
(1,10,6): (1,9,6) -29.3350 (1,10,5) 0.797026 (1,10,7) 0.798127 (1,11,6) -3.85046
(1,10,7): (1,9,7) -17.3663 (1,10,6) -0.798127 (1,10,8) -7.23241 (1,11,7) -5.22081
(1,10,8): (1,9,8) -5.07474 (1,10,7) 7.23241 (1,10,9) -2.43842 (1,11,8) -0.890656
(1,10,9): (1,9,9) -1.40776 (1,10,8) 2.43842 (1,10,10) -0.765972 (1,11,9) -0.149079
(1,10,10): (1,9,10) -0.425663 (1,10,9) 0.765972 (1,11,10) -2.880149E-02
(1,11,1): (1,10,1) 5.122639E-03 (1,11,2) 0.223744 (1,12,1) -4.850698E-02
(1,11,2): (1,10,2) 2.475763E-02 (1,11,1) -0.223744 (1,11,3) 0.710705 (1,12,2) -0.153176
(1,11,3): (1,10,3) 0.148325 (1,11,2) -0.710705 (1,11,4) 1.70322 (1,12,3) -0.510548
(1,11,4): (1,10,4) 0.890499 (1,11,3) -1.70322 (1,11,5) 2.83540 (1,12,4) -1.45844
(1,11,5): (1,10,5) 5.22075 (1,11,4) -2.83540 (1,11,6) 0.526684 (1,12,5) -3.26493
(1,11,6): (1,10,6) 3.85046 (1,11,5) -0.526684 (1,11,7) -0.525647 (1,12,6) -3.46668
(1,11,7): (1,10,7) 5.22081 (1,11,6) 0.525647 (1,11,8) -2.83137 (1,12,7) -3.26535
(1,11,8): (1,10,8) 0.890656 (1,11,7) 2.83137 (1,11,9) -1.68619 (1,12,8) -1.46043
(1,11,9): (1,10,9) 0.149079 (1,11,8) 1.68619 (1,11,10) -0.644971 (1,12,9) -0.519477
(1,11,10): (1,10,10) 2.880149E-02 (1,11,9) 0.644971 (1,12,10) -0.190637
(1,12,1): (1,11,1) 4.850698E-02 (1,12,2) 0.119002 (1,13,1) -3.781793E-02
(1,12,2): (1,11,2) 0.153176 (1,12,1) -0.119002 (1,12,3) 0.352633 (1,13,2) -0.109886
(1,12,3): (1,11,3) 0.510548 (1,12,2) -0.352633 (1,12,4) 0.753149 (1,13,3) -0.330840
(1,12,4): (1,11,4) 1.45844 (1,12,3) -0.753149 (1,12,5) 1.03575 (1,13,4) -0.823846
(1,12,5): (1,11,5) 3.26493 (1,12,4) -1.03575 (1,12,6) 0.329824 (1,13,5) -1.53591
(1,12,6): (1,11,6) 3.46668 (1,12,5) -0.329824 (1,12,7) -0.329196 (1,13,6) -1.74560
(1,12,7): (1,11,7) 3.26535 (1,12,6) 0.329196 (1,12,8) -1.03336 (1,13,7) -1.53625
(1,12,8): (1,11,8) 1.46043 (1,12,7) 1.03336 (1,12,9) -0.743241 (1,13,8) -0.825509
(1,12,9): (1,11,9) 0.519477 (1,12,8) 0.743241 (1,12,10) -0.315728 (1,13,9) -0.338081
(1,12,10): (1,11,10) 0.190637 (1,12,9) 0.315728 (1,13,10) -0.138619
(1,13,1): (1,12,1) 3.781793E-02 (1,13,2) 4.692747E-02 (1,14,1) -1.829818E-02
(1,13,2): (1,12,2) 0.109886 (1,13,1) -4.692747E-02 (1,13,3) 0.131632 (1,14,2) -4.997922E-02
(1,13,3): (1,12,3) 0.330840 (1,13,2) -0.131632 (1,13,4) 0.260481 (1,14,3) -0.140742
(1,13,4): (1,12,4) 0.823846 (1,13,3) -0.260481 (1,13,5) 0.327054 (1,14,4) -0.324974
(1,13,5): (1,12,5) 1.53591 (1,13,4) -0.327054 (1,13,6) 0.122887 (1,14,5) -0.561998
(1,13,6): (1,12,6) 1.74560 (1,13,5) -0.122887 (1,13,7) -0.122601 (1,14,6) -0.648918
(1,13,7): (1,12,7) 1.53625 (1,13,6) 0.122601 (1,13,8) -0.325988 (1,14,7) -0.562176
(1,13,8): (1,12,8) 0.825509 (1,13,7) 0.325988 (1,13,9) -0.256202 (1,14,8) -0.325827
(1,13,9): (1,12,9) 0.338081 (1,13,8) 0.256202 (1,13,10) -0.116310 (1,14,9) -0.144348
(1,13,10): (1,12,10) 0.138619 (1,13,9) 0.116310 (1,14,10) -6.367148E-02
(1,14,1): (1,13,1) 1.829818E-02 (1,14,2) 1.524741E-02 (1,15,1) -6.295811E-03
(1,14,2): (1,13,2) 4.997922E-02 (1,14,1) -1.524741E-02 (1,14,3) 4.087825E-02 (1,15,2) -1.642799E-02
(1,14,3): (1,13,3) 0.140742 (1,14,2) -4.087825E-02 (1,14,4) 7.636606E-02 (1,15,3) -4.414357E-02
(1,14,4): (1,13,4) 0.324974 (1,14,3) -7.636606E-02 (1,14,5) 9.057638E-02 (1,15,4) -9.712045E-02
(1,14,5): (1,13,5) 0.561998 (1,14,4) -9.057638E-02 (1,14,6) 3.641156E-02 (1,15,5) -0.161189
(1,14,6): (1,13,6) 0.648918 (1,14,5) -3.641156E-02 (1,14,7) -3.630386E-02 (1,15,6) -0.186608
(1,14,7): (1,13,7) 0.562176 (1,14,6) 3.630386E-02 (1,14,8) -9.018567E-02 (1,15,7) -0.161255
(1,14,8): (1,13,8) 0.325827 (1,14,7) 9.018567E-02 (1,14,9) -7.484860E-02 (1,15,8) -9.742810E-02
(1,14,9): (1,13,9) 0.144348 (1,14,8) 7.484860E-02 (1,14,10) -3.565578E-02 (1,15,9) -4.541188E-02
(1,14,10): (1,13,10) 6.367148E-02 (1,14,9) 3.565578E-02 (1,15,10) -2.108063E-02
(1,15,1): (1,14,1) 6.295811E-03 (1,15,2) 5.115349E-03
(1,15,2): (1,14,2) 1.642799E-02 (1,15,1) -5.115349E-03 (1,15,3) 1.316357E-02
(1,15,3): (1,14,3) 4.414357E-02 (1,15,2) -1.316357E-02 (1,15,4) 2.340014E-02
(1,15,4): (1,14,4) 9.712045E-02 (1,15,3) -2.340014E-02 (1,15,5) 2.655245E-02
(1,15,5): (1,14,5) 0.161189 (1,15,4) -2.655245E-02 (1,15,6) 1.103044E-02
(1,15,6): (1,14,6) 0.186608 (1,15,5) -1.103044E-02 (1,15,7) -1.098816E-02
(1,15,7): (1,14,7) 0.161255 (1,15,6) 1.098816E-02 (1,15,8) -2.640404E-02
(1,15,8): (1,14,8) 9.742810E-02 (1,15,7) 2.640404E-02 (1,15,9) -2.284408E-02
(1,15,9): (1,14,9) 4.541188E-02 (1,15,8) 2.284408E-02 (1,15,10) -1.132690E-02
(1,15,10): (1,14,10) 2.108063E-02 (1,15,9) 1.132690E-02

 WEL PACKAGE (WEL-1) FLOW RATES   PERIOD      2   STEP       32
 ----------------------------------------------------------------------------------------
   NUMBER   CELLID                    RATE       NAME                                    
 ----------------------------------------------------------------------------------------
     1      (1,8,6)              -218.24717      WEL                                     
 ----------------------------------------------------------------------------------------




 API PACKAGE (MAR) FLOW RATES   PERIOD      2   STEP       32
 -----------------------------------------------
   NUMBER   CELLID                    RATE      
 -----------------------------------------------
     1      (1,6,5)               46.666667     
     2      (1,6,6)               46.666667     
     3      (1,6,7)               46.666667     
     4      (1,10,5)              26.082389     
     5      (1,10,6)              26.082389     
     6      (1,10,7)              26.082389     
 -----------------------------------------------



1
  HEAD IN LAYER   1 AT END OF TIME STEP  32 IN STRESS PERIOD    2
  ---------------------------------------------------------------------------

            1           2           3           4           5           6           7           8           9          10
 ........................................................................................................................
   1   3.8960E-04  9.4979E-04  2.3965E-03  4.9834E-03  7.9425E-03  9.1755E-03  7.9471E-03  5.0041E-03  2.4778E-03  1.2317E-03
   2   1.0802E-03  2.7602E-03  7.2929E-03  1.5851E-02  2.6159E-02  3.0319E-02  2.6170E-02  1.5906E-02  7.5130E-03  3.5527E-03
   3   3.0995E-03  8.3186E-03  2.3113E-02  5.2921E-02  9.1384E-02  0.1059      9.1415E-02  5.3068E-02  2.3729E-02  1.0622E-02
   4   7.3249E-03  2.0768E-02  6.1313E-02  0.1505      0.2791      0.3208      0.2792      0.1509      6.2725E-02  2.6279E-02
   5   1.2915E-02  3.8932E-02  0.1242      0.3390      0.7227      0.8042      0.7229      0.3396      0.1266      4.8749E-02
   6   1.3976E-02  4.4215E-02  0.1551      0.5126       1.605       1.613       1.605      0.5131      0.1577      5.4884E-02
   7   3.6972E-03  5.6700E-03 -1.2791E-03 -7.0033E-02 -0.3793      -1.515     -0.3792     -6.9784E-02 -3.9799E-04  8.1880E-03
   8  -3.9102E-03 -2.3231E-02 -0.1214     -0.5390      -2.137      -8.561      -2.137     -0.5390     -0.1218     -2.6783E-02
   9   2.5022E-03  1.3239E-03 -1.8813E-02 -0.1338     -0.5638      -1.741     -0.5638     -0.1336     -1.8137E-02  2.9008E-03
  10   1.1952E-02  3.6206E-02  0.1187      0.3559       1.013      0.9406       1.013      0.3564      0.1210      4.5275E-02
  11   1.1440E-02  3.3740E-02  0.1041      0.2699      0.5390      0.5887      0.5391      0.2704      0.1062      4.2408E-02
  12   6.5953E-03  1.8474E-02  5.3549E-02  0.1279      0.2292      0.2613      0.2292      0.1282      5.4826E-02  2.3425E-02
  13   2.8160E-03  7.5052E-03  2.0641E-02  4.6569E-02  7.9018E-02  9.1195E-02  7.9046E-02  4.6703E-02  2.1202E-02  9.5954E-03
  14   9.8669E-04  2.5110E-03  6.5962E-03  1.4222E-02  2.3259E-02  2.6890E-02  2.3269E-02  1.4272E-02  6.7975E-03  3.2343E-03
  15   3.5717E-04  8.6866E-04  2.1847E-03  4.5237E-03  7.1770E-03  8.2792E-03  7.1813E-03  4.5427E-03  2.2594E-03  1.1269E-03

 HEAD WILL BE SAVED ON UNIT 1043 AT END OF TIME STEP   32, STRESS PERIOD    2


  VOLUME BUDGET FOR ENTIRE MODEL AT END OF TIME STEP   32, STRESS PERIOD   2
  ---------------------------------------------------------------------------------------------------

     CUMULATIVE VOLUME      L**3       RATES FOR THIS TIME STEP      L**3/T          PACKAGE NAME    
     ------------------                 ------------------------                     ----------------

           IN:                                      IN:
           ---                                      ---
              STO-SS =          16.7708                STO-SS =       2.8524E-02     STORAGE                          
              STO-SY =       42213.7391                STO-SY =          59.9551     STORAGE                          
                 WEL =           0.0000                   WEL =           0.0000     WEL-1                            
                 API =       80464.9226                   API =         218.2472     MAR                              
                 CHD =       2.8247E-08                   CHD =           0.0000     CHD_0                            

            TOTAL IN =      122695.4325              TOTAL IN =         278.2308

          OUT:                                     OUT:
          ----                                     ----
              STO-SS =          21.9948                STO-SS =       3.0793E-02     STORAGE                          
              STO-SY =       42208.5151                STO-SY =          59.9528     STORAGE                          
                 WEL =       80464.9226                   WEL =         218.2472     WEL-1                            
                 API =           0.0000                   API =           0.0000     MAR                              
                 CHD =       3.0388E-08                   CHD =           0.0000     CHD_0                            

           TOTAL OUT =      122695.4325             TOTAL OUT =         278.2308

            IN - OUT =       8.8476E-09              IN - OUT =      -3.5689E-09

 PERCENT DISCREPANCY =           0.00     PERCENT DISCREPANCY =          -0.00




         TIME SUMMARY AT END OF TIME STEP   32 IN STRESS PERIOD    2
                    SECONDS     MINUTES      HOURS       DAYS        YEARS
                    -----------------------------------------------------------
   TIME STEP LENGTH 8.64000E+05  14400.      240.00      10.000     2.73785E-02
 STRESS PERIOD TIME 2.76480E+07 4.60800E+05  7680.0      320.00     0.87611    
         TOTAL TIME 2.77344E+07 4.62240E+05  7704.0      321.00     0.87885    


end timestep


start timestep kper="2" kstp="33" mode="normal"

 UBDSV1 SAVING           STO-SS ON UNIT   1042 AT TIME STEP     33, STRESS PERIOD      2
 UBDSV1 SAVING           STO-SY ON UNIT   1042 AT TIME STEP     33, STRESS PERIOD      2
 UBDSV1 SAVING     FLOW-JA-FACE ON UNIT   1042 AT TIME STEP     33, STRESS PERIOD      2
 UBDSV06 SAVING       DATA-SPDIS IN MODEL GWF              PACKAGE NPF             CONNECTED TO MODEL GWF              PACKAGE NPF              ON UNIT   1042 AT TIME STEP     33, STRESS PERIOD      2
 UBDSV06 SAVING              WEL IN MODEL GWF              PACKAGE GWF             CONNECTED TO MODEL GWF              PACKAGE WEL-1            ON UNIT   1042 AT TIME STEP     33, STRESS PERIOD      2
 UBDSV06 SAVING              API IN MODEL GWF              PACKAGE GWF             CONNECTED TO MODEL GWF              PACKAGE MAR              ON UNIT   1042 AT TIME STEP     33, STRESS PERIOD      2
 UBDSV06 SAVING              CHD IN MODEL GWF              PACKAGE GWF             CONNECTED TO MODEL GWF              PACKAGE CHD_0            ON UNIT   1042 AT TIME STEP     33, STRESS PERIOD      2

    CALCULATED INTERCELL FLOW FOR PERIOD 2 STEP 33
(1,1,1): (1,1,2) 6.392596E-03 (1,2,1) 7.863675E-03
(1,1,2): (1,1,1) -6.392596E-03 (1,1,3) 1.626935E-02 (1,2,2) 2.018752E-02
(1,1,3): (1,1,2) -1.626935E-02 (1,1,4) 2.864418E-02 (1,2,3) 5.366491E-02
(1,1,4): (1,1,3) -2.864418E-02 (1,1,5) 3.237635E-02 (1,2,4) 0.117523
(1,1,5): (1,1,4) -3.237635E-02 (1,1,6) 1.349423E-02 (1,2,5) 0.195300
(1,1,6): (1,1,5) -1.349423E-02 (1,1,7) -1.343691E-02 (1,2,6) 0.226369
(1,1,7): (1,1,6) 1.343691E-02 (1,1,8) -3.217989E-02 (1,2,7) 0.195387
(1,1,8): (1,1,7) 3.217989E-02 (1,1,9) -2.792310E-02 (1,2,8) 0.117920
(1,1,9): (1,1,8) 2.792310E-02 (1,1,10) -1.393280E-02 (1,2,9) 5.526772E-02
(1,1,10): (1,1,9) 1.393280E-02 (1,2,10) 2.596662E-02
(1,2,1): (1,1,1) -7.863675E-03 (1,2,2) 1.871626E-02 (1,3,1) 2.255490E-02
(1,2,2): (1,1,2) -2.018752E-02 (1,2,1) -1.871626E-02 (1,2,3) 4.974543E-02 (1,3,2) 6.078089E-02
(1,2,3): (1,1,3) -5.366491E-02 (1,2,2) -4.974543E-02 (1,2,4) 9.248664E-02 (1,3,3) 0.170154
(1,2,4): (1,1,4) -0.117523 (1,2,3) -9.248664E-02 (1,2,5) 0.110088 (1,3,4) 0.394090
(1,2,5): (1,1,5) -0.195300 (1,2,4) -0.110088 (1,2,6) 4.450721E-02 (1,3,5) 0.689176
(1,2,6): (1,1,6) -0.226369 (1,2,5) -4.450721E-02 (1,2,7) -4.436385E-02 (1,3,6) 0.798764
(1,2,7): (1,1,7) -0.195387 (1,2,6) 4.436385E-02 (1,2,8) -0.109581 (1,3,7) 0.689409
(1,2,8): (1,1,8) -0.117920 (1,2,7) 0.109581 (1,2,9) -9.055810E-02 (1,3,8) 0.395176
(1,2,9): (1,1,9) -5.526772E-02 (1,2,8) 9.055810E-02 (1,2,10) -4.323037E-02 (1,3,9) 0.174651
(1,2,10): (1,1,10) -2.596662E-02 (1,2,9) 4.323037E-02 (1,3,10) 7.757796E-02
(1,3,1): (1,2,1) -2.255490E-02 (1,3,2) 5.694078E-02 (1,4,1) 4.612145E-02
(1,3,2): (1,2,2) -6.078089E-02 (1,3,1) -5.694078E-02 (1,3,3) 0.159106 (1,4,2) 0.133116
(1,3,3): (1,2,3) -0.170154 (1,3,2) -0.159106 (1,3,4) 0.316251 (1,4,3) 0.402865
(1,3,4): (1,2,4) -0.394090 (1,3,3) -0.316251 (1,3,5) 0.404353 (1,4,4) 1.02389
(1,3,5): (1,2,5) -0.689176 (1,3,4) -0.404353 (1,3,6) 0.153410 (1,4,5) 1.97536
(1,3,6): (1,2,6) -0.798764 (1,3,5) -0.153410 (1,3,7) -0.153035 (1,4,6) 2.26753
(1,3,7): (1,2,7) -0.689409 (1,3,6) 0.153035 (1,3,8) -0.402991 (1,4,7) 1.97581
(1,3,8): (1,2,8) -0.395176 (1,3,7) 0.402991 (1,3,9) -0.310899 (1,4,8) 1.02598
(1,3,9): (1,2,9) -0.174651 (1,3,8) 0.310899 (1,3,10) -0.140270 (1,4,9) 0.411788
(1,3,10): (1,2,10) -7.757796E-02 (1,3,9) 0.140270 (1,4,10) 0.168041
(1,4,1): (1,3,1) -4.612145E-02 (1,4,2) 0.143945 (1,5,1) 5.931204E-02
(1,4,2): (1,3,2) -0.133116 (1,4,1) -0.143945 (1,4,3) 0.428925 (1,5,2) 0.189162
(1,4,3): (1,3,3) -0.402865 (1,4,2) -0.428925 (1,4,4) 0.936751 (1,5,3) 0.650241
(1,4,4): (1,3,4) -1.02389 (1,4,3) -0.936751 (1,4,5) 1.35029 (1,5,4) 1.96809
(1,4,5): (1,3,5) -1.97536 (1,4,4) -1.35029 (1,4,6) 0.440723 (1,5,5) 4.77490
(1,4,6): (1,3,6) -2.26753 (1,4,5) -0.440723 (1,4,7) -0.439903 (1,5,6) 5.23942
(1,4,7): (1,3,7) -1.97581 (1,4,6) 0.439903 (1,4,8) -1.34726 (1,5,7) 4.77546
(1,4,8): (1,3,8) -1.02598 (1,4,7) 1.34726 (1,4,9) -0.924493 (1,5,8) 1.97060
(1,4,9): (1,3,9) -0.411788 (1,4,8) 0.924493 (1,4,10) -0.383951 (1,5,9) 0.661217
(1,4,10): (1,3,10) -0.168041 (1,4,9) 0.383951 (1,5,10) 0.234936
(1,5,1): (1,4,1) -5.931204E-02 (1,5,2) 0.273903 (1,6,1) 9.112461E-03
(1,5,2): (1,4,2) -0.189162 (1,5,1) -0.273903 (1,5,3) 0.891082 (1,6,2) 4.804803E-02
(1,5,3): (1,4,3) -0.650241 (1,5,2) -0.891082 (1,5,4) 2.25814 (1,6,3) 0.297704
(1,5,4): (1,4,4) -1.96809 (1,5,3) -2.25814 (1,5,5) 4.14208 (1,6,4) 1.78306
(1,5,5): (1,4,5) -4.77490 (1,5,4) -4.14208 (1,5,6) 0.889327 (1,6,5) 10.1623
(1,5,6): (1,4,6) -5.23942 (1,5,5) -0.889327 (1,5,7) -0.887964 (1,6,6) 9.30373
(1,5,7): (1,4,7) -4.77546 (1,5,6) 0.887964 (1,5,8) -4.13698 (1,6,7) 10.1625
(1,5,8): (1,4,8) -1.97060 (1,5,7) 4.13698 (1,5,9) -2.23710 (1,6,8) 1.78332
(1,5,9): (1,4,9) -0.661217 (1,5,8) 2.23710 (1,5,10) -0.810851 (1,6,9) 0.298972
(1,5,10): (1,4,10) -0.234936 (1,5,9) 0.810851 (1,6,10) 5.545577E-02
(1,6,1): (1,5,1) -9.112461E-03 (1,6,2) 0.312941 (1,7,1) -0.110286
(1,6,2): (1,5,2) -4.804803E-02 (1,6,1) -0.312941 (1,6,3) 1.14278 (1,7,2) -0.405869
(1,6,3): (1,5,3) -0.297704 (1,6,2) -1.14278 (1,6,4) 3.76998 (1,7,3) -1.63604
(1,6,4): (1,5,4) -1.78306 (1,6,3) -3.76998 (1,6,5) 12.6741 (1,7,4) -6.22099
(1,6,5): (1,5,5) -10.1623 (1,6,4) -12.6741 (1,6,6) 8.981589E-02 (1,7,5) -23.1731
(1,6,6): (1,5,6) -9.30373 (1,6,5) -8.981589E-02 (1,6,7) -8.833823E-02 (1,7,6) -36.4648
(1,6,7): (1,5,7) -10.1625 (1,6,6) 8.833823E-02 (1,6,8) -12.6685 (1,7,7) -23.1741
(1,6,8): (1,5,8) -1.78332 (1,6,7) 12.6685 (1,6,9) -3.74761 (1,7,8) -6.22496
(1,6,9): (1,5,9) -0.298972 (1,6,8) 3.74761 (1,6,10) -1.05615 (1,7,9) -1.65489
(1,6,10): (1,5,10) -5.545577E-02 (1,6,9) 1.05615 (1,7,10) -0.493687
(1,7,1): (1,6,1) 0.110286 (1,7,2) 1.762939E-02 (1,8,1) -8.115553E-02
(1,7,2): (1,6,2) 0.405869 (1,7,1) -1.762939E-02 (1,7,3) -8.160035E-02 (1,8,2) -0.302078
(1,7,3): (1,6,3) 1.63604 (1,7,2) 8.160035E-02 (1,7,4) -0.719831 (1,8,3) -1.23461
(1,7,4): (1,6,4) 6.22099 (1,7,3) 0.719831 (1,7,5) -3.10559 (1,8,4) -4.72185
(1,7,5): (1,6,5) 23.1731 (1,7,4) 3.10559 (1,7,6) -10.9117 (1,8,5) -16.9818
(1,7,6): (1,6,6) 36.4648 (1,7,5) 10.9117 (1,7,7) 10.9125 (1,8,6) -59.7100
(1,7,7): (1,6,7) 23.1741 (1,7,6) -10.9125 (1,7,8) 3.10775 (1,8,7) -16.9824
(1,7,8): (1,6,8) 6.22496 (1,7,7) -3.10775 (1,7,9) 0.726691 (1,8,8) -4.72462
(1,7,9): (1,6,9) 1.65489 (1,7,8) -0.726691 (1,7,10) 9.844595E-02 (1,8,9) -1.24825
(1,7,10): (1,6,10) 0.493687 (1,7,9) -9.844595E-02 (1,8,10) -0.366632
(1,8,1): (1,7,1) 8.115553E-02 (1,8,2) -0.203078 (1,9,1) 6.764600E-02
(1,8,2): (1,7,2) 0.302078 (1,8,1) 0.203078 (1,8,3) -1.01208 (1,9,2) 0.253352
(1,8,3): (1,7,3) 1.23461 (1,8,2) 1.01208 (1,8,4) -4.18893 (1,9,3) 1.03882
(1,8,4): (1,7,4) 4.72185 (1,8,3) 4.18893 (1,8,5) -15.1553 (1,9,4) 4.00423
(1,8,5): (1,7,5) 16.9818 (1,8,4) 15.1553 (1,8,6) -50.3078 (1,9,5) 14.7736
(1,8,6): (1,7,6) 59.7100 (1,8,5) 50.3078 (1,8,7) 50.3081 (1,9,6) 56.0252
(1,8,7): (1,7,7) 16.9824 (1,8,6) -50.3081 (1,8,8) 15.1553 (1,9,7) 14.7740
(1,8,8): (1,7,8) 4.72462 (1,8,7) -15.1553 (1,8,9) 4.18474 (1,9,8) 4.00646
(1,8,9): (1,7,9) 1.24825 (1,8,8) -4.18474 (1,8,10) 0.977700 (1,9,9) 1.05007
(1,8,10): (1,7,10) 0.366632 (1,8,9) -0.977700 (1,9,10) 0.307228
(1,9,1): (1,8,1) -6.764600E-02 (1,9,2) -1.746496E-02 (1,10,1) 0.100945
(1,9,2): (1,8,2) -0.253352 (1,9,1) 1.746496E-02 (1,9,3) -0.226819 (1,10,2) 0.364950
(1,9,3): (1,8,3) -1.03882 (1,9,2) 0.226819 (1,9,4) -1.21810 (1,10,3) 1.42351
(1,9,4): (1,8,4) -4.00423 (1,9,3) 1.21810 (1,9,5) -4.34571 (1,10,4) 5.10843
(1,9,5): (1,8,5) -14.7736 (1,9,4) 4.34571 (1,9,6) -11.0987 (1,10,5) 17.3197
(1,9,6): (1,8,6) -56.0252 (1,9,5) 11.0987 (1,9,7) 11.0993 (1,10,6) 29.2242
(1,9,7): (1,8,7) -14.7740 (1,9,6) -11.0993 (1,9,8) 4.34749 (1,10,7) 17.3205
(1,9,8): (1,8,8) -4.00646 (1,9,7) -4.34749 (1,9,9) 1.22313 (1,10,8) 5.11200
(1,9,9): (1,8,9) -1.05007 (1,9,8) -1.22313 (1,9,10) 0.235396 (1,10,9) 1.44077
(1,9,10): (1,8,10) -0.307228 (1,9,9) -0.235396 (1,10,10) 0.445155
(1,10,1): (1,9,1) -0.100945 (1,10,2) 0.246233 (1,11,1) -3.022445E-03
(1,10,2): (1,9,2) -0.364950 (1,10,1) -0.246233 (1,10,3) 0.826093 (1,11,2) -1.708318E-02
(1,10,3): (1,9,3) -1.42351 (1,10,2) -0.826093 (1,10,4) 2.38900 (1,11,3) -0.119844
(1,10,4): (1,9,4) -5.10843 (1,10,3) -2.38900 (1,10,5) 7.04865 (1,11,4) -0.801826
(1,10,5): (1,9,5) -17.3197 (1,10,4) -7.04865 (1,10,6) -0.845802 (1,11,5) -4.99402
(1,10,6): (1,9,6) -29.2242 (1,10,5) 0.845802 (1,10,7) 0.847046 (1,11,6) -3.59395
(1,10,7): (1,9,7) -17.3205 (1,10,6) -0.847046 (1,10,8) -7.04395 (1,11,7) -4.99407
(1,10,8): (1,9,8) -5.11200 (1,10,7) 7.04395 (1,10,9) -2.36998 (1,11,8) -0.801914
(1,10,9): (1,9,9) -1.44077 (1,10,8) 2.36998 (1,10,10) -0.754121 (1,11,9) -0.120242
(1,10,10): (1,9,10) -0.445155 (1,10,9) 0.754121 (1,11,10) -1.942563E-02
(1,11,1): (1,10,1) 3.022445E-03 (1,11,2) 0.232140 (1,12,1) -5.091780E-02
(1,11,2): (1,10,2) 1.708318E-02 (1,11,1) -0.232140 (1,11,3) 0.722624 (1,12,2) -0.156695
(1,11,3): (1,10,3) 0.119844 (1,11,2) -0.722624 (1,11,4) 1.69696 (1,12,3) -0.511365
(1,11,4): (1,10,4) 0.801826 (1,11,3) -1.69696 (1,11,5) 2.78600 (1,12,4) -1.43744
(1,11,5): (1,10,5) 4.99402 (1,11,4) -2.78600 (1,11,6) 0.509373 (1,12,5) -3.19004
(1,11,6): (1,10,6) 3.59395 (1,11,5) -0.509373 (1,11,7) -0.508183 (1,12,6) -3.37258
(1,11,7): (1,10,7) 4.99407 (1,11,6) 0.508183 (1,11,8) -2.78150 (1,12,7) -3.19051
(1,11,8): (1,10,8) 0.801914 (1,11,7) 2.78150 (1,11,9) -1.67837 (1,12,8) -1.43961
(1,11,9): (1,10,9) 0.120242 (1,11,8) 1.67837 (1,11,10) -0.652682 (1,12,9) -0.520894
(1,11,10): (1,10,10) 1.942563E-02 (1,11,9) 0.652682 (1,12,10) -0.195746
(1,12,1): (1,11,1) 5.091780E-02 (1,12,2) 0.126284 (1,13,1) -4.104873E-02
(1,12,2): (1,11,2) 0.156695 (1,12,1) -0.126284 (1,12,3) 0.367223 (1,13,2) -0.116400
(1,12,3): (1,11,3) 0.511365 (1,12,2) -0.367223 (1,12,4) 0.768623 (1,13,3) -0.343210
(1,12,4): (1,11,4) 1.43744 (1,12,3) -0.768623 (1,12,5) 1.03964 (1,13,4) -0.839674
(1,12,5): (1,11,5) 3.19004 (1,12,4) -1.03964 (1,12,6) 0.331128 (1,13,5) -1.54592
(1,12,6): (1,11,6) 3.37258 (1,12,5) -0.331128 (1,12,7) -0.330394 (1,13,6) -1.75304
(1,12,7): (1,11,7) 3.19051 (1,12,6) 0.330394 (1,12,8) -1.03691 (1,13,7) -1.54632
(1,12,8): (1,11,8) 1.43961 (1,12,7) 1.03691 (1,12,9) -0.757599 (1,13,8) -0.841548
(1,12,9): (1,11,9) 0.520894 (1,12,8) 0.757599 (1,12,10) -0.327116 (1,13,9) -0.351193
(1,12,10): (1,11,10) 0.195746 (1,12,9) 0.327116 (1,13,10) -0.147376
(1,13,1): (1,12,1) 4.104873E-02 (1,13,2) 5.092550E-02 (1,14,1) -2.037118E-02
(1,13,2): (1,12,2) 0.116400 (1,13,1) -5.092550E-02 (1,13,3) 0.140359 (1,14,2) -5.436640E-02
(1,13,3): (1,12,3) 0.343210 (1,13,2) -0.140359 (1,13,4) 0.272501 (1,14,3) -0.150083
(1,13,4): (1,12,4) 0.839674 (1,13,3) -0.272501 (1,13,5) 0.336769 (1,14,4) -0.340776
(1,13,5): (1,12,5) 1.54592 (1,13,4) -0.336769 (1,13,6) 0.126738 (1,14,5) -0.582345
(1,13,6): (1,12,6) 1.75304 (1,13,5) -0.126738 (1,13,7) -0.126398 (1,14,6) -0.671011
(1,13,7): (1,12,7) 1.54632 (1,13,6) 0.126398 (1,13,8) -0.335530 (1,14,7) -0.582556
(1,13,8): (1,12,8) 0.841548 (1,13,7) 0.335530 (1,13,9) -0.267642 (1,14,8) -0.341760
(1,13,9): (1,12,9) 0.351193 (1,13,8) 0.267642 (1,13,10) -0.123348 (1,14,9) -0.154157
(1,13,10): (1,12,10) 0.147376 (1,13,9) 0.123348 (1,14,10) -6.950608E-02
(1,14,1): (1,13,1) 2.037118E-02 (1,14,2) 1.693144E-02 (1,15,1) -7.154005E-03
(1,14,2): (1,13,2) 5.436640E-02 (1,14,1) -1.693144E-02 (1,14,3) 4.465159E-02 (1,15,2) -1.825960E-02
(1,14,3): (1,13,3) 0.150083 (1,14,2) -4.465159E-02 (1,14,4) 8.193702E-02 (1,15,3) -4.814874E-02
(1,14,4): (1,13,4) 0.340776 (1,14,3) -8.193702E-02 (1,14,5) 9.578065E-02 (1,15,4) -0.104288
(1,14,5): (1,13,5) 0.582345 (1,14,4) -9.578065E-02 (1,14,6) 3.854243E-02 (1,15,5) -0.171216
(1,14,6): (1,13,6) 0.671011 (1,14,5) -3.854243E-02 (1,14,7) -3.841143E-02 (1,15,6) -0.197793
(1,14,7): (1,13,7) 0.582556 (1,14,6) 3.841143E-02 (1,14,8) -9.531702E-02 (1,15,7) -0.171295
(1,14,8): (1,13,8) 0.341760 (1,14,7) 9.531702E-02 (1,14,9) -8.017618E-02 (1,15,8) -0.104649
(1,14,9): (1,13,9) 0.154157 (1,14,8) 8.017618E-02 (1,14,10) -3.872321E-02 (1,15,9) -4.960962E-02
(1,14,10): (1,13,10) 6.950608E-02 (1,14,9) 3.872321E-02 (1,15,10) -2.351029E-02
(1,15,1): (1,14,1) 7.154005E-03 (1,15,2) 5.825990E-03
(1,15,2): (1,14,2) 1.825960E-02 (1,15,1) -5.825990E-03 (1,15,3) 1.476349E-02
(1,15,3): (1,14,3) 4.814874E-02 (1,15,2) -1.476349E-02 (1,15,4) 2.581058E-02
(1,15,4): (1,14,4) 0.104288 (1,15,3) -2.581058E-02 (1,15,5) 2.890228E-02
(1,15,5): (1,14,5) 0.171216 (1,15,4) -2.890228E-02 (1,15,6) 1.200730E-02
(1,15,6): (1,14,6) 0.197793 (1,15,5) -1.200730E-02 (1,15,7) -1.195471E-02
(1,15,7): (1,14,7) 0.171295 (1,15,6) 1.195471E-02 (1,15,8) -2.872204E-02
(1,15,8): (1,14,8) 0.104649 (1,15,7) 2.872204E-02 (1,15,9) -2.514978E-02
(1,15,9): (1,14,9) 4.960962E-02 (1,15,8) 2.514978E-02 (1,15,10) -1.262672E-02
(1,15,10): (1,14,10) 2.351029E-02 (1,15,9) 1.262672E-02

 WEL PACKAGE (WEL-1) FLOW RATES   PERIOD      2   STEP       33
 ----------------------------------------------------------------------------------------
   NUMBER   CELLID                    RATE       NAME                                    
 ----------------------------------------------------------------------------------------
     1      (1,8,6)              -217.39334      WEL                                     
 ----------------------------------------------------------------------------------------




 API PACKAGE (MAR) FLOW RATES   PERIOD      2   STEP       33
 -----------------------------------------------
   NUMBER   CELLID                    RATE      
 -----------------------------------------------
     1      (1,6,5)               46.666667     
     2      (1,6,6)               46.666667     
     3      (1,6,7)               46.666667     
     4      (1,10,5)              25.797779     
     5      (1,10,6)              25.797779     
     6      (1,10,7)              25.797779     
 -----------------------------------------------



1
  HEAD IN LAYER   1 AT END OF TIME STEP  33 IN STRESS PERIOD    2
  ---------------------------------------------------------------------------

            1           2           3           4           5           6           7           8           9          10
 ........................................................................................................................
   1   4.6084E-04  1.1000E-03  2.7265E-03  5.5893E-03  8.8241E-03  1.0172E-02  8.8299E-03  5.6147E-03  2.8240E-03  1.4311E-03
   2   1.2471E-03  3.1182E-03  8.0887E-03  1.7321E-02  2.8299E-02  3.2735E-02  2.8313E-02  1.7386E-02  8.3461E-03  4.0267E-03
   3   3.5018E-03  9.1907E-03  2.5062E-02  5.6509E-02  9.6558E-02  0.1117      9.6595E-02  5.6681E-02  2.5766E-02  1.1775E-02
   4   8.1102E-03  2.2472E-02  6.5088E-02  0.1573      0.2886      0.3312      0.2886      0.1577      6.6672E-02  2.8532E-02
   5   1.4033E-02  4.1311E-02  0.1293      0.3475      0.7334      0.8156      0.7335      0.3481      0.1319      5.1904E-02
   6   1.4943E-02  4.6094E-02  0.1586      0.5171       1.609       1.617       1.609      0.5177      0.1614      5.7418E-02
   7   3.9309E-03  5.6928E-03 -2.4626E-03 -7.4463E-02 -0.3874      -1.522     -0.3873     -7.4185E-02 -1.5055E-03  8.3309E-03
   8  -4.1815E-03 -2.4498E-02 -0.1260     -0.5502      -2.154      -8.566      -2.154     -0.5502     -0.1263     -2.8302E-02
   9   2.5814E-03  8.3533E-04 -2.1845E-02 -0.1439     -0.5848      -1.764     -0.5848     -0.1437     -2.1120E-02  2.4137E-03
  10   1.2663E-02  3.7195E-02  0.1188      0.3497      0.9910      0.9140      0.9911      0.3502      0.1212      4.6722E-02
  11   1.2361E-02  3.5493E-02  0.1070      0.2722      0.5366      0.5847      0.5367      0.2727      0.1094      4.4789E-02
  12   7.2757E-03  1.9879E-02  5.6395E-02  0.1323      0.2338      0.2661      0.2339      0.1326      5.7825E-02  2.5301E-02
  13   3.1738E-03  8.2622E-03  2.2267E-02  4.9383E-02  8.2784E-02  9.5338E-02  8.2817E-02  4.9540E-02  2.2908E-02  1.0601E-02
  14   1.1374E-03  2.8300E-03  7.2919E-03  1.5473E-02  2.5027E-02  2.8870E-02  2.5040E-02  1.5532E-02  7.5271E-03  3.6577E-03
  15   4.2204E-04  1.0046E-03  2.4806E-03  5.0603E-03  7.9482E-03  9.1479E-03  7.9535E-03  5.0836E-03  2.5699E-03  1.3075E-03

 HEAD WILL BE SAVED ON UNIT 1043 AT END OF TIME STEP   33, STRESS PERIOD    2


  VOLUME BUDGET FOR ENTIRE MODEL AT END OF TIME STEP   33, STRESS PERIOD   2
  ---------------------------------------------------------------------------------------------------

     CUMULATIVE VOLUME      L**3       RATES FOR THIS TIME STEP      L**3/T          PACKAGE NAME    
     ------------------                 ------------------------                     ----------------

           IN:                                      IN:
           ---                                      ---
              STO-SS =          17.0491                STO-SS =       2.7831E-02     STORAGE                          
              STO-SY =       42797.9118                STO-SY =          58.4173     STORAGE                          
                 WEL =           0.0000                   WEL =           0.0000     WEL-1                            
                 API =       82638.8560                   API =         217.3933     MAR                              
                 CHD =       2.8247E-08                   CHD =           0.0000     CHD_0                            

            TOTAL IN =      125453.8169              TOTAL IN =         275.8384

          OUT:                                     OUT:
          ----                                     ----
              STO-SS =          22.2947                STO-SS =       2.9995E-02     STORAGE                          
              STO-SY =       42792.6662                STO-SY =          58.4151     STORAGE                          
                 WEL =       82638.8560                   WEL =         217.3933     WEL-1                            
                 API =           0.0000                   API =           0.0000     MAR                              
                 CHD =       3.0388E-08                   CHD =           0.0000     CHD_0                            

           TOTAL OUT =      125453.8169             TOTAL OUT =         275.8384

            IN - OUT =      -2.7110E-08              IN - OUT =      -3.5949E-09

 PERCENT DISCREPANCY =          -0.00     PERCENT DISCREPANCY =          -0.00




         TIME SUMMARY AT END OF TIME STEP   33 IN STRESS PERIOD    2
                    SECONDS     MINUTES      HOURS       DAYS        YEARS
                    -----------------------------------------------------------
   TIME STEP LENGTH 8.64000E+05  14400.      240.00      10.000     2.73785E-02
 STRESS PERIOD TIME 2.85120E+07 4.75200E+05  7920.0      330.00     0.90349    
         TOTAL TIME 2.85984E+07 4.76640E+05  7944.0      331.00     0.90623    


end timestep


start timestep kper="2" kstp="34" mode="normal"

 UBDSV1 SAVING           STO-SS ON UNIT   1042 AT TIME STEP     34, STRESS PERIOD      2
 UBDSV1 SAVING           STO-SY ON UNIT   1042 AT TIME STEP     34, STRESS PERIOD      2
 UBDSV1 SAVING     FLOW-JA-FACE ON UNIT   1042 AT TIME STEP     34, STRESS PERIOD      2
 UBDSV06 SAVING       DATA-SPDIS IN MODEL GWF              PACKAGE NPF             CONNECTED TO MODEL GWF              PACKAGE NPF              ON UNIT   1042 AT TIME STEP     34, STRESS PERIOD      2
 UBDSV06 SAVING              WEL IN MODEL GWF              PACKAGE GWF             CONNECTED TO MODEL GWF              PACKAGE WEL-1            ON UNIT   1042 AT TIME STEP     34, STRESS PERIOD      2
 UBDSV06 SAVING              API IN MODEL GWF              PACKAGE GWF             CONNECTED TO MODEL GWF              PACKAGE MAR              ON UNIT   1042 AT TIME STEP     34, STRESS PERIOD      2
 UBDSV06 SAVING              CHD IN MODEL GWF              PACKAGE GWF             CONNECTED TO MODEL GWF              PACKAGE CHD_0            ON UNIT   1042 AT TIME STEP     34, STRESS PERIOD      2

    CALCULATED INTERCELL FLOW FOR PERIOD 2 STEP 34
(1,1,1): (1,1,2) 7.251348E-03 (1,2,1) 8.900294E-03
(1,1,2): (1,1,1) -7.251348E-03 (1,1,3) 1.819616E-02 (1,2,2) 2.238618E-02
(1,1,3): (1,1,2) -1.819616E-02 (1,1,4) 3.155690E-02 (1,2,3) 5.850211E-02
(1,1,4): (1,1,3) -3.155690E-02 (1,1,5) 3.525389E-02 (1,2,4) 0.126376
(1,1,5): (1,1,4) -3.525389E-02 (1,1,6) 1.469274E-02 (1,2,5) 0.208097
(1,1,6): (1,1,5) -1.469274E-02 (1,1,7) -1.462196E-02 (1,2,6) 0.240777
(1,1,7): (1,1,6) 1.462196E-02 (1,1,8) -3.501692E-02 (1,2,7) 0.208199
(1,1,8): (1,1,7) 3.501692E-02 (1,1,9) -3.070520E-02 (1,2,8) 0.126839
(1,1,9): (1,1,8) 3.070520E-02 (1,1,10) -1.549187E-02 (1,2,9) 6.033934E-02
(1,1,10): (1,1,9) 1.549187E-02 (1,2,10) 2.888419E-02
(1,2,1): (1,1,1) -8.900294E-03 (1,2,2) 2.073701E-02 (1,3,1) 2.505183E-02
(1,2,2): (1,1,2) -2.238618E-02 (1,2,1) -2.073701E-02 (1,2,3) 5.431058E-02 (1,3,2) 6.610777E-02
(1,2,3): (1,1,3) -5.850211E-02 (1,2,2) -5.431058E-02 (1,2,4) 9.941247E-02 (1,3,3) 0.181879
(1,2,4): (1,1,4) -0.126376 (1,2,3) -9.941247E-02 (1,2,5) 0.116901 (1,3,4) 0.415409
(1,2,5): (1,1,5) -0.208097 (1,2,4) -0.116901 (1,2,6) 4.731051E-02 (1,3,5) 0.719645
(1,2,6): (1,1,6) -0.240777 (1,2,5) -4.731051E-02 (1,2,7) -4.713725E-02 (1,3,6) 0.832860
(1,2,7): (1,1,7) -0.208199 (1,2,6) 4.713725E-02 (1,2,8) -0.116303 (1,3,7) 0.719918
(1,2,8): (1,1,8) -0.126839 (1,2,7) 0.116303 (1,2,9) -9.718569E-02 (1,3,8) 0.416656
(1,2,9): (1,1,9) -6.033934E-02 (1,2,8) 9.718569E-02 (1,2,10) -4.694282E-02 (1,3,9) 0.186941
(1,2,10): (1,1,10) -2.888419E-02 (1,2,9) 4.694282E-02 (1,3,10) 8.464475E-02
(1,3,1): (1,2,1) -2.505183E-02 (1,3,2) 6.179119E-02 (1,4,1) 5.007345E-02
(1,3,2): (1,2,2) -6.610777E-02 (1,3,1) -6.179119E-02 (1,3,3) 0.170068 (1,4,2) 0.141498
(1,3,3): (1,2,3) -0.181879 (1,3,2) -0.170068 (1,3,4) 0.332753 (1,4,3) 0.420978
(1,3,4): (1,2,4) -0.415409 (1,3,3) -0.332753 (1,3,5) 0.420249 (1,4,4) 1.05565
(1,3,5): (1,2,5) -0.719645 (1,3,4) -0.420249 (1,3,6) 0.159789 (1,4,5) 2.01860
(1,3,6): (1,2,6) -0.832860 (1,3,5) -0.159789 (1,3,7) -0.159344 (1,4,6) 2.31489
(1,3,7): (1,2,7) -0.719918 (1,3,6) 0.159344 (1,3,8) -0.418674 (1,4,7) 2.01912
(1,3,8): (1,2,8) -0.416656 (1,3,7) 0.418674 (1,3,9) -0.326697 (1,4,8) 1.05800
(1,3,9): (1,2,9) -0.186941 (1,3,8) 0.326697 (1,3,10) -0.149201 (1,4,9) 0.430802
(1,3,10): (1,2,10) -8.464475E-02 (1,3,9) 0.149201 (1,4,10) 0.179182
(1,4,1): (1,3,1) -5.007345E-02 (1,4,2) 0.153226 (1,5,1) 6.259271E-02
(1,4,2): (1,3,2) -0.141498 (1,4,1) -0.153226 (1,4,3) 0.449627 (1,5,2) 0.195616
(1,4,3): (1,3,3) -0.420978 (1,4,2) -0.449627 (1,4,4) 0.966878 (1,5,3) 0.662459
(1,4,4): (1,3,4) -1.05565 (1,4,3) -0.966878 (1,4,5) 1.37747 (1,5,4) 1.98475
(1,4,5): (1,3,5) -2.01860 (1,4,4) -1.37747 (1,4,6) 0.451064 (1,5,5) 4.78933
(1,4,6): (1,3,6) -2.31489 (1,4,5) -0.451064 (1,4,7) -0.450110 (1,5,6) 5.25210
(1,4,7): (1,3,7) -2.01912 (1,4,6) 0.450110 (1,4,8) -1.37403 (1,5,7) 4.78995
(1,4,8): (1,3,8) -1.05800 (1,4,7) 1.37403 (1,4,9) -0.953264 (1,5,8) 1.98748
(1,4,9): (1,3,9) -0.430802 (1,4,8) 0.953264 (1,4,10) -0.400747 (1,5,9) 0.674206
(1,4,10): (1,3,10) -0.179182 (1,4,9) 0.400747 (1,5,10) 0.243640
(1,5,1): (1,4,1) -6.259271E-02 (1,5,2) 0.286370 (1,6,1) 7.378811E-03
(1,5,2): (1,4,2) -0.195616 (1,5,1) -0.286370 (1,5,3) 0.917625 (1,6,2) 4.258205E-02
(1,5,3): (1,4,3) -0.662459 (1,5,2) -0.917625 (1,5,4) 2.29292 (1,6,3) 0.280836
(1,5,4): (1,4,4) -1.98475 (1,5,3) -2.29292 (1,5,5) 4.16734 (1,6,4) 1.74186
(1,5,5): (1,4,5) -4.78933 (1,5,4) -4.16734 (1,5,6) 0.898018 (1,6,5) 10.0877
(1,5,6): (1,4,6) -5.25210 (1,5,5) -0.898018 (1,5,7) -0.896457 (1,6,6) 9.21980
(1,5,7): (1,4,7) -4.78995 (1,5,6) 0.896457 (1,5,8) -4.16165 (1,6,7) 10.0879
(1,5,8): (1,4,8) -1.98748 (1,5,7) 4.16165 (1,5,9) -2.26996 (1,6,8) 1.74206
(1,5,9): (1,4,9) -0.674206 (1,5,8) 2.26996 (1,5,10) -0.831970 (1,6,9) 0.281784
(1,5,10): (1,4,10) -0.243640 (1,5,9) 0.831970 (1,6,10) 4.861100E-02
(1,6,1): (1,5,1) -7.378811E-03 (1,6,2) 0.321670 (1,7,1) -0.117789
(1,6,2): (1,5,2) -4.258205E-02 (1,6,1) -0.321670 (1,6,3) 1.15790 (1,7,2) -0.424453
(1,6,3): (1,5,3) -0.280836 (1,6,2) -1.15790 (1,6,4) 3.78068 (1,7,3) -1.68232
(1,6,4): (1,5,4) -1.74186 (1,6,3) -3.78068 (1,6,5) 12.6695 (1,7,4) -6.31240
(1,6,5): (1,5,5) -10.0877 (1,6,4) -12.6695 (1,6,6) 8.922747E-02 (1,7,5) -23.3071
(1,6,6): (1,5,6) -9.21980 (1,6,5) -8.922747E-02 (1,6,7) -8.755696E-02 (1,7,6) -36.5892
(1,6,7): (1,5,7) -10.0879 (1,6,6) 8.755696E-02 (1,6,8) -12.6634 (1,7,7) -23.3082
(1,6,8): (1,5,8) -1.74206 (1,6,7) 12.6634 (1,6,9) -3.75663 (1,7,8) -6.31678
(1,6,9): (1,5,9) -0.281784 (1,6,8) 3.75663 (1,6,10) -1.06691 (1,7,9) -1.70275
(1,6,10): (1,5,10) -4.861100E-02 (1,6,9) 1.06691 (1,7,10) -0.517782
(1,7,1): (1,6,1) 0.117789 (1,7,2) 1.531725E-02 (1,8,1) -8.628242E-02
(1,7,2): (1,6,2) 0.424453 (1,7,1) -1.531725E-02 (1,7,3) -9.369288E-02 (1,8,2) -0.314859
(1,7,3): (1,6,3) 1.68232 (1,7,2) 9.369288E-02 (1,7,4) -0.750504 (1,8,3) -1.26676
(1,7,4): (1,6,4) 6.31240 (1,7,3) 0.750504 (1,7,5) -3.13607 (1,8,4) -4.78380
(1,7,5): (1,6,5) 23.3071 (1,7,4) 3.13607 (1,7,6) -10.8926 (1,8,5) -17.0494
(1,7,6): (1,6,6) 36.5892 (1,7,5) 10.8926 (1,7,7) 10.8934 (1,8,6) -59.6521
(1,7,7): (1,6,7) 23.3082 (1,7,6) -10.8934 (1,7,8) 3.13846 (1,8,7) -17.0501
(1,7,8): (1,6,8) 6.31678 (1,7,7) -3.13846 (1,7,9) 0.757838 (1,8,8) -4.78685
(1,7,9): (1,6,9) 1.70275 (1,7,8) -0.757838 (1,7,10) 0.110918 (1,8,9) -1.28146
(1,7,10): (1,6,10) 0.517782 (1,7,9) -0.110918 (1,8,10) -0.383164
(1,8,1): (1,7,1) 8.628242E-02 (1,8,2) -0.213030 (1,9,1) 7.106274E-02
(1,8,2): (1,7,2) 0.314859 (1,8,1) 0.213030 (1,8,3) -1.04349 (1,9,2) 0.260569
(1,8,3): (1,7,3) 1.26676 (1,8,2) 1.04349 (1,8,4) -4.24919 (1,9,3) 1.05125
(1,8,4): (1,7,4) 4.78380 (1,8,3) 4.24919 (1,8,5) -15.1870 (1,9,4) 4.00641
(1,8,5): (1,7,5) 17.0494 (1,8,4) 15.1870 (1,8,6) -50.1192 (1,9,5) 14.6998
(1,8,6): (1,7,6) 59.6521 (1,8,5) 50.1192 (1,8,7) 50.1196 (1,9,6) 55.7324
(1,8,7): (1,7,7) 17.0501 (1,8,6) -50.1196 (1,8,8) 15.1869 (1,9,7) 14.7003
(1,8,8): (1,7,8) 4.78685 (1,8,7) -15.1869 (1,8,9) 4.24467 (1,9,8) 4.00884
(1,8,9): (1,7,9) 1.28146 (1,8,8) -4.24467 (1,8,10) 1.00677 (1,9,9) 1.06324
(1,8,10): (1,7,10) 0.383164 (1,8,9) -1.00677 (1,9,10) 0.316875
(1,9,1): (1,8,1) -7.106274E-02 (1,9,2) -2.361365E-02 (1,10,1) 0.107334
(1,9,2): (1,8,2) -0.260569 (1,9,1) 2.361365E-02 (1,9,3) -0.252865 (1,10,2) 0.379477
(1,9,3): (1,8,3) -1.05125 (1,9,2) 0.252865 (1,9,4) -1.28691 (1,10,3) 1.45352
(1,9,4): (1,8,4) -4.00641 (1,9,3) 1.28691 (1,9,5) -4.44237 (1,10,4) 5.14201
(1,9,5): (1,8,5) -14.6998 (1,9,4) 4.44237 (1,9,6) -11.0915 (1,10,5) 17.2743
(1,9,6): (1,8,6) -55.7324 (1,9,5) 11.0915 (1,9,7) 11.0922 (1,10,6) 29.1160
(1,9,7): (1,8,7) -14.7003 (1,9,6) -11.0922 (1,9,8) 4.44432 (1,10,7) 17.2752
(1,9,8): (1,8,8) -4.00884 (1,9,7) -4.44432 (1,9,9) 1.29218 (1,10,8) 5.14593
(1,9,9): (1,8,9) -1.06324 (1,9,8) -1.29218 (1,9,10) 0.260827 (1,10,9) 1.47215
(1,9,10): (1,8,10) -0.316875 (1,9,9) -0.260827 (1,10,10) 0.464309
(1,10,1): (1,9,1) -0.107334 (1,10,2) 0.248181 (1,11,1) -6.595930E-04
(1,10,2): (1,9,2) -0.379477 (1,10,1) -0.248181 (1,10,3) 0.815141 (1,11,2) -8.889800E-03
(1,10,3): (1,9,3) -1.45352 (1,10,2) -0.815141 (1,10,4) 2.32184 (1,11,3) -9.085328E-02
(1,10,4): (1,9,4) -5.14201 (1,10,3) -2.32184 (1,10,5) 6.87159 (1,11,4) -0.715595
(1,10,5): (1,9,5) -17.2743 (1,10,4) -6.87159 (1,10,6) -0.891680 (1,11,5) -4.78093
(1,10,6): (1,9,6) -29.1160 (1,10,5) 0.891680 (1,10,7) 0.893080 (1,11,6) -3.35431
(1,10,7): (1,9,7) -17.2752 (1,10,6) -0.893080 (1,10,8) -6.86645 (1,11,7) -4.78097
(1,10,8): (1,9,8) -5.14593 (1,10,7) 6.86645 (1,10,9) -2.30157 (1,11,8) -0.715598
(1,10,9): (1,9,9) -1.47215 (1,10,8) 2.30157 (1,10,10) -0.740524 (1,11,9) -9.083845E-02
(1,10,10): (1,9,10) -0.464309 (1,10,9) 0.740524 (1,11,10) -9.341439E-03
(1,11,1): (1,10,1) 6.595930E-04 (1,11,2) 0.239932 (1,12,1) -5.318117E-02
(1,11,2): (1,10,2) 8.889800E-03 (1,11,1) -0.239932 (1,11,3) 0.732599 (1,12,2) -0.159606
(1,11,3): (1,10,3) 9.085328E-02 (1,11,2) -0.732599 (1,11,4) 1.68775 (1,12,3) -0.510421
(1,11,4): (1,10,4) 0.715595 (1,11,3) -1.68775 (1,11,5) 2.73638 (1,12,4) -1.41360
(1,11,5): (1,10,5) 4.78093 (1,11,4) -2.73638 (1,11,6) 0.491803 (1,12,5) -3.11395
(1,11,6): (1,10,6) 3.35431 (1,11,5) -0.491803 (1,11,7) -0.490446 (1,12,6) -3.27784
(1,11,7): (1,10,7) 4.78097 (1,11,6) 0.490446 (1,11,8) -2.73137 (1,12,7) -3.11446
(1,11,8): (1,10,8) 0.715598 (1,11,7) 2.73137 (1,11,9) -1.66758 (1,12,8) -1.41595
(1,11,9): (1,10,9) 9.083845E-02 (1,11,8) 1.66758 (1,11,10) -0.658510 (1,12,9) -0.520532
(1,11,10): (1,10,10) 9.341439E-03 (1,11,9) 0.658510 (1,12,10) -0.200107
(1,12,1): (1,11,1) 5.318117E-02 (1,12,2) 0.133422 (1,13,1) -4.432806E-02
(1,12,2): (1,11,2) 0.159606 (1,12,1) -0.133422 (1,12,3) 0.381024 (1,13,2) -0.122752
(1,12,3): (1,11,3) 0.510421 (1,12,2) -0.381024 (1,12,4) 0.782250 (1,13,3) -0.354694
(1,12,4): (1,11,4) 1.41360 (1,12,3) -0.782250 (1,12,5) 1.04169 (1,13,4) -0.853227
(1,12,5): (1,11,5) 3.11395 (1,12,4) -1.04169 (1,12,6) 0.331648 (1,13,5) -1.55249
(1,12,6): (1,11,6) 3.27784 (1,12,5) -0.331648 (1,12,7) -0.330796 (1,13,6) -1.75655
(1,12,7): (1,11,7) 3.11446 (1,12,6) 0.330796 (1,12,8) -1.03860 (1,13,7) -1.55295
(1,12,8): (1,11,8) 1.41595 (1,12,7) 1.03860 (1,12,9) -0.770051 (1,13,8) -0.855326
(1,12,9): (1,11,9) 0.520532 (1,12,8) 0.770051 (1,12,10) -0.337655 (1,13,9) -0.363444
(1,12,10): (1,11,10) 0.200107 (1,12,9) 0.337655 (1,13,10) -0.155976
(1,13,1): (1,12,1) 4.432806E-02 (1,13,2) 5.498978E-02 (1,14,1) -2.255142E-02
(1,13,2): (1,12,2) 0.122752 (1,13,1) -5.498978E-02 (1,13,3) 0.149021 (1,14,2) -5.884445E-02
(1,13,3): (1,12,3) 0.354694 (1,13,2) -0.149021 (1,13,4) 0.284060 (1,14,3) -0.159340
(1,13,4): (1,12,4) 0.853227 (1,13,3) -0.284060 (1,13,5) 0.345791 (1,14,4) -0.355995
(1,13,5): (1,12,5) 1.55249 (1,13,4) -0.345791 (1,13,6) 0.130284 (1,14,5) -0.601482
(1,13,6): (1,12,6) 1.75655 (1,13,5) -0.130284 (1,13,7) -0.129881 (1,14,6) -0.691621
(1,13,7): (1,12,7) 1.55295 (1,13,6) 0.129881 (1,13,8) -0.344361 (1,14,7) -0.601728
(1,13,8): (1,12,8) 0.855326 (1,13,7) 0.344361 (1,13,9) -0.278575 (1,14,8) -0.357123
(1,13,9): (1,12,9) 0.363444 (1,13,8) 0.278575 (1,13,10) -0.130240 (1,14,9) -0.163913
(1,13,10): (1,12,10) 0.155976 (1,13,9) 0.130240 (1,14,10) -7.549033E-02
(1,14,1): (1,13,1) 2.255142E-02 (1,14,2) 1.869815E-02 (1,15,1) -8.078653E-03
(1,14,2): (1,13,2) 5.884445E-02 (1,14,1) -1.869815E-02 (1,14,3) 4.853579E-02 (1,15,2) -2.018217E-02
(1,14,3): (1,13,3) 0.159340 (1,14,2) -4.853579E-02 (1,14,4) 8.754381E-02 (1,15,3) -5.225247E-02
(1,14,4): (1,13,4) 0.355995 (1,14,3) -8.754381E-02 (1,14,5) 0.100918 (1,15,4) -0.111480
(1,14,5): (1,13,5) 0.601482 (1,14,4) -0.100918 (1,14,6) 4.063708E-02 (1,15,5) -0.181131
(1,14,6): (1,13,6) 0.691621 (1,14,5) -4.063708E-02 (1,14,7) -4.047894E-02 (1,15,6) -0.208804
(1,14,7): (1,13,7) 0.601728 (1,14,6) 4.047894E-02 (1,14,8) -0.100372 (1,15,7) -0.181224
(1,14,8): (1,13,8) 0.357123 (1,14,7) 0.100372 (1,14,9) -8.551397E-02 (1,15,8) -0.111903
(1,14,9): (1,13,9) 0.163913 (1,14,8) 8.551397E-02 (1,14,10) -4.184672E-02 (1,15,9) -5.392381E-02
(1,14,10): (1,13,10) 7.549033E-02 (1,14,9) 4.184672E-02 (1,15,10) -2.607102E-02
(1,15,1): (1,14,1) 8.078653E-03 (1,15,2) 6.594810E-03
(1,15,2): (1,14,2) 2.018217E-02 (1,15,1) -6.594810E-03 (1,15,3) 1.646668E-02
(1,15,3): (1,14,3) 5.225247E-02 (1,15,2) -1.646668E-02 (1,15,4) 2.833007E-02
(1,15,4): (1,14,4) 0.111480 (1,15,3) -2.833007E-02 (1,15,5) 3.132281E-02
(1,15,5): (1,14,5) 0.181131 (1,15,4) -3.132281E-02 (1,15,6) 1.301037E-02
(1,15,6): (1,14,6) 0.208804 (1,15,5) -1.301037E-02 (1,15,7) -1.294549E-02
(1,15,7): (1,14,7) 0.181224 (1,15,6) 1.294549E-02 (1,15,8) -3.110560E-02
(1,15,8): (1,14,8) 0.111903 (1,15,7) 3.110560E-02 (1,15,9) -2.755043E-02
(1,15,9): (1,14,9) 5.392381E-02 (1,15,8) 2.755043E-02 (1,15,10) -1.399729E-02
(1,15,10): (1,14,10) 2.607102E-02 (1,15,9) 1.399729E-02

 WEL PACKAGE (WEL-1) FLOW RATES   PERIOD      2   STEP       34
 ----------------------------------------------------------------------------------------
   NUMBER   CELLID                    RATE       NAME                                    
 ----------------------------------------------------------------------------------------
     1      (1,8,6)              -216.59388      WEL                                     
 ----------------------------------------------------------------------------------------




 API PACKAGE (MAR) FLOW RATES   PERIOD      2   STEP       34
 -----------------------------------------------
   NUMBER   CELLID                    RATE      
 -----------------------------------------------
     1      (1,6,5)               46.666667     
     2      (1,6,6)               46.666667     
     3      (1,6,7)               46.666667     
     4      (1,10,5)              25.531295     
     5      (1,10,6)              25.531295     
     6      (1,10,7)              25.531295     
 -----------------------------------------------



1
  HEAD IN LAYER   1 AT END OF TIME STEP  34 IN STRESS PERIOD    2
  ---------------------------------------------------------------------------

            1           2           3           4           5           6           7           8           9          10
 ........................................................................................................................
   1   5.4156E-04  1.2666E-03  3.0857E-03  6.2394E-03  9.7613E-03  1.1229E-02  9.7684E-03  6.2701E-03  3.2015E-03  1.6528E-03
   2   1.4315E-03  3.5044E-03  8.9307E-03  1.8853E-02  3.0508E-02  3.5222E-02  3.0525E-02  1.8930E-02  9.2299E-03  4.5399E-03
   3   3.9357E-03  1.0109E-02  2.7069E-02  6.0146E-02  0.1017      0.1175      0.1018      6.0346E-02  2.7872E-02  1.2993E-02
   4   8.9385E-03  2.4224E-02  6.8879E-02  0.1640      0.2978      0.3414      0.2979      0.1644      7.0650E-02  3.0856E-02
   5   1.5188E-02  4.3701E-02  0.1342      0.3557      0.7436      0.8265      0.7437      0.3563      0.1372      5.5087E-02
   6   1.5925E-02  4.7939E-02  0.1619      0.5212       1.612       1.620       1.612      0.5219      0.1649      5.9919E-02
   7   4.1649E-03  5.6957E-03 -3.6682E-03 -7.8746E-02 -0.3948      -1.529     -0.3948     -7.8437E-02 -2.6331E-03  8.4494E-03
   8  -4.4598E-03 -2.5772E-02 -0.1304     -0.5609      -2.170      -8.571      -2.170     -0.5609     -0.1308     -2.9835E-02
   9   2.6446E-03  2.8389E-04 -2.5002E-02 -0.1540     -0.6052      -1.786     -0.6051     -0.1538     -2.4231E-02  1.8470E-03
  10   1.3364E-02  3.8088E-02  0.1186      0.3431      0.9696      0.8883      0.9697      0.3437      0.1212      4.8056E-02
  11   1.3298E-02  3.7202E-02  0.1097      0.2739      0.5337      0.5802      0.5338      0.2745      0.1122      4.7126E-02
  12   7.9867E-03  2.1301E-02  5.9179E-02  0.1364      0.2381      0.2704      0.2382      0.1367      6.0771E-02  2.7209E-02
  13   3.5575E-03  9.0515E-03  2.3918E-02  5.2177E-02  8.6459E-02  9.9359E-02  8.6499E-02  5.2358E-02  2.4646E-02  1.1654E-02
  14   1.3031E-03  3.1723E-03  8.0220E-03  1.6762E-02  2.6827E-02  3.0878E-02  2.6842E-02  1.6832E-02  8.2950E-03  4.1138E-03
  15   4.9537E-04  1.1548E-03  2.8010E-03  5.6324E-03  8.7619E-03  1.0062E-02  8.7684E-03  5.6606E-03  2.9071E-03  1.5078E-03

 HEAD WILL BE SAVED ON UNIT 1043 AT END OF TIME STEP   34, STRESS PERIOD    2


  VOLUME BUDGET FOR ENTIRE MODEL AT END OF TIME STEP   34, STRESS PERIOD   2
  ---------------------------------------------------------------------------------------------------

     CUMULATIVE VOLUME      L**3       RATES FOR THIS TIME STEP      L**3/T          PACKAGE NAME    
     ------------------                 ------------------------                     ----------------

           IN:                                      IN:
           ---                                      ---
              STO-SS =          17.3208                STO-SS =       2.7175E-02     STORAGE                          
              STO-SY =       43367.6045                STO-SY =          56.9693     STORAGE                          
                 WEL =           0.0000                   WEL =           0.0000     WEL-1                            
                 API =       84804.7948                   API =         216.5939     MAR                              
                 CHD =       2.8247E-08                   CHD =           0.0000     CHD_0                            

            TOTAL IN =      128189.7201              TOTAL IN =         273.5903

          OUT:                                     OUT:
          ----                                     ----
              STO-SS =          22.5872                STO-SS =       2.9245E-02     STORAGE                          
              STO-SY =       43362.3381                STO-SY =          56.9672     STORAGE                          
                 WEL =       84804.7948                   WEL =         216.5939     WEL-1                            
                 API =           0.0000                   API =           0.0000     MAR                              
                 CHD =       3.0388E-08                   CHD =           0.0000     CHD_0                            

           TOTAL OUT =      128189.7201             TOTAL OUT =         273.5903

            IN - OUT =      -6.3461E-08              IN - OUT =      -3.6350E-09

 PERCENT DISCREPANCY =          -0.00     PERCENT DISCREPANCY =          -0.00




         TIME SUMMARY AT END OF TIME STEP   34 IN STRESS PERIOD    2
                    SECONDS     MINUTES      HOURS       DAYS        YEARS
                    -----------------------------------------------------------
   TIME STEP LENGTH 8.64000E+05  14400.      240.00      10.000     2.73785E-02
 STRESS PERIOD TIME 2.93760E+07 4.89600E+05  8160.0      340.00     0.93087    
         TOTAL TIME 2.94624E+07 4.91040E+05  8184.0      341.00     0.93361    


end timestep


start timestep kper="2" kstp="35" mode="normal"

 UBDSV1 SAVING           STO-SS ON UNIT   1042 AT TIME STEP     35, STRESS PERIOD      2
 UBDSV1 SAVING           STO-SY ON UNIT   1042 AT TIME STEP     35, STRESS PERIOD      2
 UBDSV1 SAVING     FLOW-JA-FACE ON UNIT   1042 AT TIME STEP     35, STRESS PERIOD      2
 UBDSV06 SAVING       DATA-SPDIS IN MODEL GWF              PACKAGE NPF             CONNECTED TO MODEL GWF              PACKAGE NPF              ON UNIT   1042 AT TIME STEP     35, STRESS PERIOD      2
 UBDSV06 SAVING              WEL IN MODEL GWF              PACKAGE GWF             CONNECTED TO MODEL GWF              PACKAGE WEL-1            ON UNIT   1042 AT TIME STEP     35, STRESS PERIOD      2
 UBDSV06 SAVING              API IN MODEL GWF              PACKAGE GWF             CONNECTED TO MODEL GWF              PACKAGE MAR              ON UNIT   1042 AT TIME STEP     35, STRESS PERIOD      2
 UBDSV06 SAVING              CHD IN MODEL GWF              PACKAGE GWF             CONNECTED TO MODEL GWF              PACKAGE CHD_0            ON UNIT   1042 AT TIME STEP     35, STRESS PERIOD      2

    CALCULATED INTERCELL FLOW FOR PERIOD 2 STEP 35
(1,1,1): (1,1,2) 8.179961E-03 (1,2,1) 1.001698E-02
(1,1,2): (1,1,1) -8.179961E-03 (1,1,3) 2.025112E-02 (1,2,2) 2.470198E-02
(1,1,3): (1,1,2) -2.025112E-02 (1,1,4) 3.461690E-02 (1,2,3) 6.349869E-02
(1,1,4): (1,1,3) -3.461690E-02 (1,1,5) 3.824286E-02 (1,2,4) 0.135383
(1,1,5): (1,1,4) -3.824286E-02 (1,1,6) 1.593487E-02 (1,2,5) 0.220992
(1,1,6): (1,1,5) -1.593487E-02 (1,1,7) -1.584815E-02 (1,2,6) 0.255259
(1,1,7): (1,1,6) 1.584815E-02 (1,1,8) -3.795908E-02 (1,2,7) 0.221114
(1,1,8): (1,1,7) 3.795908E-02 (1,1,9) -3.361761E-02 (1,2,8) 0.135921
(1,1,9): (1,1,8) 3.361761E-02 (1,1,10) -1.714033E-02 (1,2,9) 6.559170E-02
(1,1,10): (1,1,9) 1.714033E-02 (1,2,10) 3.196762E-02
(1,2,1): (1,1,1) -1.001698E-02 (1,2,2) 2.286469E-02 (1,3,1) 2.768682E-02
(1,2,2): (1,1,2) -2.470198E-02 (1,2,1) -2.286469E-02 (1,2,3) 5.904611E-02 (1,3,2) 7.159612E-02
(1,2,3): (1,1,3) -6.349869E-02 (1,2,2) -5.904611E-02 (1,2,4) 0.106481 (1,3,3) 0.193709
(1,2,4): (1,1,4) -0.135383 (1,2,3) -0.106481 (1,2,5) 0.123770 (1,3,4) 0.436567
(1,2,5): (1,1,5) -0.220992 (1,2,4) -0.123770 (1,2,6) 5.013197E-02 (1,3,5) 0.749571
(1,2,6): (1,1,6) -0.255259 (1,2,5) -5.013197E-02 (1,2,7) -4.992408E-02 (1,3,6) 0.866261
(1,2,7): (1,1,7) -0.221114 (1,2,6) 4.992408E-02 (1,2,8) -0.123069 (1,3,7) 0.749888
(1,2,8): (1,1,8) -0.135921 (1,2,7) 0.123069 (1,2,9) -0.103925 (1,3,8) 0.437991
(1,2,9): (1,1,9) -6.559170E-02 (1,2,8) 0.103925 (1,2,10) -5.075943E-02 (1,3,9) 0.199376
(1,2,10): (1,1,10) -3.196762E-02 (1,2,9) 5.075943E-02 (1,3,10) 9.195244E-02
(1,3,1): (1,2,1) -2.768682E-02 (1,3,2) 6.677188E-02 (1,4,1) 5.412912E-02
(1,3,2): (1,2,2) -7.159612E-02 (1,3,1) -6.677188E-02 (1,3,3) 0.181143 (1,4,2) 0.149874
(1,3,3): (1,2,3) -0.193709 (1,3,2) -0.181143 (1,3,4) 0.349130 (1,4,3) 0.438648
(1,3,4): (1,2,4) -0.436567 (1,3,3) -0.349130 (1,3,5) 0.435817 (1,4,4) 1.08602
(1,3,5): (1,2,5) -0.749571 (1,3,4) -0.435817 (1,3,6) 0.166033 (1,4,5) 2.05945
(1,3,6): (1,2,6) -0.866261 (1,3,5) -0.166033 (1,3,7) -0.165509 (1,4,6) 2.35951
(1,3,7): (1,2,7) -0.749888 (1,3,6) 0.165509 (1,3,8) -0.434007 (1,4,7) 2.06003
(1,3,8): (1,2,8) -0.437991 (1,3,7) 0.434007 (1,3,9) -0.342316 (1,4,8) 1.08866
(1,3,9): (1,2,9) -0.199376 (1,3,8) 0.342316 (1,3,10) -0.158139 (1,4,9) 0.449410
(1,3,10): (1,2,10) -9.195244E-02 (1,3,9) 0.158139 (1,4,10) 0.190360
(1,4,1): (1,3,1) -5.412912E-02 (1,4,2) 0.162528 (1,5,1) 6.580235E-02
(1,4,2): (1,3,2) -0.149874 (1,4,1) -0.162528 (1,4,3) 0.470007 (1,5,2) 0.201697
(1,4,3): (1,3,3) -0.438648 (1,4,2) -0.470007 (1,4,4) 0.995947 (1,5,3) 0.673495
(1,4,4): (1,3,4) -1.08602 (1,4,3) -0.995947 (1,4,5) 1.40332 (1,5,4) 1.99902
(1,4,5): (1,3,5) -2.05945 (1,4,4) -1.40332 (1,4,6) 0.460941 (1,5,5) 4.80071
(1,4,6): (1,3,6) -2.35951 (1,4,5) -0.460941 (1,4,7) -0.459836 (1,5,6) 5.26176
(1,4,7): (1,3,7) -2.06003 (1,4,6) 0.459836 (1,4,8) -1.39943 (1,5,7) 4.80140
(1,4,8): (1,3,8) -1.08866 (1,4,7) 1.39943 (1,4,9) -0.980903 (1,5,8) 2.00200
(1,4,9): (1,3,9) -0.449410 (1,4,8) 0.980903 (1,4,10) -0.417106 (1,5,9) 0.686010
(1,4,10): (1,3,10) -0.190360 (1,4,9) 0.417106 (1,5,10) 0.251890
(1,5,1): (1,4,1) -6.580235E-02 (1,5,2) 0.298553 (1,6,1) 5.422308E-03
(1,5,2): (1,4,2) -0.201697 (1,5,1) -0.298553 (1,5,3) 0.943037 (1,6,2) 3.670055E-02
(1,5,3): (1,4,3) -0.673495 (1,5,2) -0.943037 (1,5,4) 2.32546 (1,6,3) 0.263409
(1,5,4): (1,4,4) -1.99902 (1,5,3) -2.32546 (1,5,5) 4.19062 (1,6,4) 1.70088
(1,5,5): (1,4,5) -4.80071 (1,5,4) -4.19062 (1,5,6) 0.906270 (1,6,5) 10.0158
(1,5,6): (1,4,6) -5.26176 (1,5,5) -0.906270 (1,5,7) -0.904493 (1,6,6) 9.13981
(1,5,7): (1,4,7) -4.80140 (1,5,6) 0.904493 (1,5,8) -4.18430 (1,6,7) 10.0159
(1,5,8): (1,4,8) -2.00200 (1,5,7) 4.18430 (1,5,9) -2.30050 (1,6,8) 1.70099
(1,5,9): (1,4,9) -0.686010 (1,5,8) 2.30050 (1,5,10) -0.851922 (1,6,9) 0.263985
(1,5,10): (1,4,10) -0.251890 (1,5,9) 0.851922 (1,6,10) 4.119388E-02
(1,6,1): (1,5,1) -5.422308E-03 (1,6,2) 0.329922 (1,7,1) -0.125425
(1,6,2): (1,5,2) -3.670055E-02 (1,6,1) -0.329922 (1,6,3) 1.17173 (1,7,2) -0.442883
(1,6,3): (1,5,3) -0.263409 (1,6,2) -1.17173 (1,6,4) 3.78985 (1,7,3) -1.72714
(1,6,4): (1,5,4) -1.70088 (1,6,3) -3.78985 (1,6,5) 12.6654 (1,7,4) -6.39903
(1,6,5): (1,5,5) -10.0158 (1,6,4) -12.6654 (1,6,6) 8.942452E-02 (1,7,5) -23.4317
(1,6,6): (1,5,6) -9.13981 (1,6,5) -8.942452E-02 (1,6,7) -8.754554E-02 (1,7,6) -36.7037
(1,6,7): (1,5,7) -10.0159 (1,6,6) 8.754554E-02 (1,6,8) -12.6586 (1,7,7) -23.4329
(1,6,8): (1,5,8) -1.70099 (1,6,7) 12.6586 (1,6,9) -3.76410 (1,7,8) -6.40385
(1,6,9): (1,5,9) -0.263985 (1,6,8) 3.76410 (1,6,10) -1.07646 (1,7,9) -1.74920
(1,6,10): (1,5,10) -4.119388E-02 (1,6,9) 1.07646 (1,7,10) -0.541775
(1,7,1): (1,6,1) 0.125425 (1,7,2) 1.281824E-02 (1,8,1) -9.147834E-02
(1,7,2): (1,6,2) 0.442883 (1,7,1) -1.281824E-02 (1,7,3) -0.105761 (1,8,2) -0.327516
(1,7,3): (1,6,3) 1.72714 (1,7,2) 0.105761 (1,7,4) -0.779514 (1,8,3) -1.29795
(1,7,4): (1,6,4) 6.39903 (1,7,3) 0.779514 (1,7,5) -3.16277 (1,8,4) -4.84294
(1,7,5): (1,6,5) 23.4317 (1,7,4) 3.16277 (1,7,6) -10.8731 (1,8,5) -17.1137
(1,7,6): (1,6,6) 36.7037 (1,7,5) 10.8731 (1,7,7) 10.8740 (1,8,6) -59.6013
(1,7,7): (1,6,7) 23.4329 (1,7,6) -10.8740 (1,7,8) 3.16540 (1,8,7) -17.1145
(1,7,8): (1,6,8) 6.40385 (1,7,7) -3.16540 (1,7,9) 0.787322 (1,8,8) -4.84628
(1,7,9): (1,6,9) 1.74920 (1,7,8) -0.787322 (1,7,10) 0.123297 (1,8,9) -1.31375
(1,7,10): (1,6,10) 0.541775 (1,7,9) -0.123297 (1,8,10) -0.399592
(1,8,1): (1,7,1) 9.147834E-02 (1,8,2) -0.222975 (1,9,1) 7.437705E-02
(1,8,2): (1,7,2) 0.327516 (1,8,1) 0.222975 (1,8,3) -1.07405 (1,9,2) 0.267227
(1,8,3): (1,7,3) 1.29795 (1,8,2) 1.07405 (1,8,4) -4.30591 (1,9,3) 1.06176
(1,8,4): (1,7,4) 4.84294 (1,8,3) 4.30591 (1,8,5) -15.2142 (1,9,4) 4.00476
(1,8,5): (1,7,5) 17.1137 (1,8,4) 15.2142 (1,8,6) -49.9422 (1,9,5) 14.6242
(1,8,6): (1,7,6) 59.6013 (1,8,5) 49.9422 (1,8,7) 49.9426 (1,9,6) 55.4498
(1,8,7): (1,7,7) 17.1145 (1,8,6) -49.9426 (1,8,8) 15.2142 (1,9,7) 14.6247
(1,8,8): (1,7,8) 4.84628 (1,8,7) -15.2142 (1,8,9) 4.30104 (1,9,8) 4.00738
(1,8,9): (1,7,9) 1.31375 (1,8,8) -4.30104 (1,8,10) 1.03493 (1,9,9) 1.07448
(1,8,10): (1,7,10) 0.399592 (1,8,9) -1.03493 (1,9,10) 0.325857
(1,9,1): (1,8,1) -7.437705E-02 (1,9,2) -3.020998E-02 (1,10,1) 0.113763
(1,9,2): (1,8,2) -0.267227 (1,9,1) 3.020998E-02 (1,9,3) -0.279420 (1,10,2) 0.393658
(1,9,3): (1,8,3) -1.06176 (1,9,2) 0.279420 (1,9,4) -1.35409 (1,10,3) 1.48195
(1,9,4): (1,8,4) -4.00476 (1,9,3) 1.35409 (1,9,5) -4.53292 (1,10,4) 5.17254
(1,9,5): (1,8,5) -14.6242 (1,9,4) 4.53292 (1,9,6) -11.0835 (1,10,5) 17.2294
(1,9,6): (1,8,6) -55.4498 (1,9,5) 11.0835 (1,9,7) 11.0843 (1,10,6) 29.0104
(1,9,7): (1,8,7) -14.6247 (1,9,6) -11.0843 (1,9,8) 4.53505 (1,10,7) 17.2303
(1,9,8): (1,8,8) -4.00738 (1,9,7) -4.53505 (1,9,9) 1.35957 (1,10,8) 5.17684
(1,9,9): (1,8,9) -1.07448 (1,9,8) -1.35957 (1,9,10) 0.286605 (1,10,9) 1.50198
(1,9,10): (1,8,10) -0.325857 (1,9,9) -0.286605 (1,10,10) 0.483101
(1,10,1): (1,9,1) -0.113763 (1,10,2) 0.249294 (1,11,1) 1.961060E-03
(1,10,2): (1,9,2) -0.393658 (1,10,1) -0.249294 (1,10,3) 0.802454 (1,11,2) -2.283011E-04
(1,10,3): (1,9,3) -1.48195 (1,10,2) -0.802454 (1,10,4) 2.25503 (1,11,3) -6.152815E-02
(1,10,4): (1,9,4) -5.17254 (1,10,3) -2.25503 (1,10,5) 6.70462 (1,11,4) -0.631942
(1,10,5): (1,9,5) -17.2294 (1,10,4) -6.70462 (1,10,6) -0.934853 (1,11,5) -4.58042
(1,10,6): (1,9,6) -29.0104 (1,10,5) 0.934853 (1,10,7) 0.936420 (1,11,6) -3.13010
(1,10,7): (1,9,7) -17.2303 (1,10,6) -0.936420 (1,10,8) -6.69902 (1,11,7) -4.58044
(1,10,8): (1,9,8) -5.17684 (1,10,7) 6.69902 (1,10,9) -2.23353 (1,11,8) -0.631845
(1,10,9): (1,9,9) -1.50198 (1,10,8) 2.23353 (1,10,10) -0.725401 (1,11,9) -6.104161E-02
(1,10,10): (1,9,10) -0.483101 (1,10,9) 0.725401 (1,11,10) 1.393053E-03
(1,11,1): (1,10,1) -1.961060E-03 (1,11,2) 0.247099 (1,12,1) -5.527982E-02
(1,11,2): (1,10,2) 2.283011E-04 (1,11,1) -0.247099 (1,11,3) 0.740711 (1,12,2) -0.161906
(1,11,3): (1,10,3) 6.152815E-02 (1,11,2) -0.740711 (1,11,4) 1.67597 (1,12,3) -0.507830
(1,11,4): (1,10,4) 0.631942 (1,11,3) -1.67597 (1,11,5) 2.68683 (1,12,4) -1.38731
(1,11,5): (1,10,5) 4.58042 (1,11,4) -2.68683 (1,11,6) 0.474121 (1,12,5) -3.03717
(1,11,6): (1,10,6) 3.13010 (1,11,5) -0.474121 (1,11,7) -0.472582 (1,12,6) -3.18305
(1,11,7): (1,10,7) 4.58044 (1,11,6) 0.472582 (1,11,8) -2.68130 (1,12,7) -3.03774
(1,11,8): (1,10,8) 0.631845 (1,11,7) 2.68130 (1,11,9) -1.65419 (1,12,8) -1.38985
(1,11,9): (1,10,9) 6.104161E-02 (1,11,8) 1.65419 (1,11,10) -0.662562 (1,12,9) -0.518502
(1,11,10): (1,10,10) -1.393053E-03 (1,11,9) 0.662562 (1,12,10) -0.203708
(1,12,1): (1,11,1) 5.527982E-02 (1,12,2) 0.140383 (1,13,1) -4.763843E-02
(1,12,2): (1,11,2) 0.161906 (1,12,1) -0.140383 (1,12,3) 0.394002 (1,13,2) -0.128911
(1,12,3): (1,11,3) 0.507830 (1,12,2) -0.394002 (1,12,4) 0.794103 (1,13,3) -0.365265
(1,12,4): (1,11,4) 1.38731 (1,12,3) -0.794103 (1,12,5) 1.04208 (1,13,4) -0.864583
(1,12,5): (1,11,5) 3.03717 (1,12,4) -1.04208 (1,12,6) 0.331462 (1,13,5) -1.55588
(1,12,6): (1,11,6) 3.18305 (1,12,5) -0.331462 (1,12,7) -0.330479 (1,13,6) -1.75646
(1,12,7): (1,11,7) 3.03774 (1,12,6) 0.330479 (1,12,8) -1.03860 (1,13,7) -1.55640
(1,12,8): (1,11,8) 1.38985 (1,12,7) 1.03860 (1,12,9) -0.780676 (1,13,8) -0.866920
(1,12,9): (1,11,9) 0.518502 (1,12,8) 0.780676 (1,12,10) -0.347327 (1,13,9) -0.374804
(1,12,10): (1,11,10) 0.203708 (1,12,9) 0.347327 (1,13,10) -0.164373
(1,13,1): (1,12,1) 4.763843E-02 (1,13,2) 5.910085E-02 (1,14,1) -2.483220E-02
(1,13,2): (1,12,2) 0.128911 (1,13,1) -5.910085E-02 (1,13,3) 0.157581 (1,14,2) -6.339254E-02
(1,13,3): (1,12,3) 0.365265 (1,13,2) -0.157581 (1,13,4) 0.295125 (1,14,3) -0.168468
(1,13,4): (1,12,4) 0.864583 (1,13,3) -0.295125 (1,13,5) 0.354127 (1,14,4) -0.370579
(1,13,5): (1,12,5) 1.55588 (1,13,4) -0.354127 (1,13,6) 0.133528 (1,14,5) -0.619379
(1,13,6): (1,12,6) 1.75646 (1,13,5) -0.133528 (1,13,7) -0.133054 (1,14,6) -0.710731
(1,13,7): (1,12,7) 1.55640 (1,13,6) 0.133054 (1,13,8) -0.352487 (1,14,7) -0.619665
(1,13,8): (1,12,8) 0.866920 (1,13,7) 0.352487 (1,13,9) -0.288970 (1,14,8) -0.371864
(1,13,9): (1,12,9) 0.374804 (1,13,8) 0.288970 (1,13,10) -0.136953 (1,14,9) -0.173572
(1,13,10): (1,12,10) 0.164373 (1,13,9) 0.136953 (1,14,10) -8.159709E-02
(1,14,1): (1,13,1) 2.483220E-02 (1,14,2) 2.054215E-02 (1,15,1) -9.069153E-03
(1,14,2): (1,13,2) 6.339254E-02 (1,14,1) -2.054215E-02 (1,14,3) 5.251617E-02 (1,15,2) -2.218954E-02
(1,14,3): (1,13,3) 0.168468 (1,14,2) -5.251617E-02 (1,14,4) 9.316476E-02 (1,15,3) -5.643619E-02
(1,14,4): (1,13,4) 0.370579 (1,14,3) -9.316476E-02 (1,14,5) 0.105972 (1,15,4) -0.118665
(1,14,5): (1,13,5) 0.619379 (1,14,4) -0.105972 (1,14,6) 4.268827E-02 (1,15,5) -0.190891
(1,14,6): (1,13,6) 0.710731 (1,14,5) -4.268827E-02 (1,14,7) -4.249875E-02 (1,15,6) -0.219593
(1,14,7): (1,13,7) 0.619665 (1,14,6) 4.249875E-02 (1,14,8) -0.105333 (1,15,7) -0.191001
(1,14,8): (1,13,8) 0.371864 (1,14,7) 0.105333 (1,14,9) -9.083937E-02 (1,15,8) -0.119154
(1,14,9): (1,13,9) 0.173572 (1,14,8) 9.083937E-02 (1,14,10) -4.501185E-02 (1,15,9) -5.833612E-02
(1,14,10): (1,13,10) 8.159709E-02 (1,14,9) 4.501185E-02 (1,15,10) -2.875535E-02
(1,15,1): (1,14,1) 9.069153E-03 (1,15,2) 7.421978E-03
(1,15,2): (1,14,2) 2.218954E-02 (1,15,1) -7.421978E-03 (1,15,3) 1.827087E-02
(1,15,3): (1,14,3) 5.643619E-02 (1,15,2) -1.827087E-02 (1,15,4) 3.095219E-02
(1,15,4): (1,14,4) 0.118665 (1,15,3) -3.095219E-02 (1,15,5) 3.380670E-02
(1,15,5): (1,14,5) 0.190891 (1,15,4) -3.380670E-02 (1,15,6) 1.403622E-02
(1,15,6): (1,14,6) 0.219593 (1,15,5) -1.403622E-02 (1,15,7) -1.395679E-02
(1,15,7): (1,14,7) 0.191001 (1,15,6) 1.395679E-02 (1,15,8) -3.354683E-02
(1,15,8): (1,14,8) 0.119154 (1,15,7) 3.354683E-02 (1,15,9) -3.003856E-02
(1,15,9): (1,14,9) 5.833612E-02 (1,15,8) 3.003856E-02 (1,15,10) -1.543501E-02
(1,15,10): (1,14,10) 2.875535E-02 (1,15,9) 1.543501E-02

 WEL PACKAGE (WEL-1) FLOW RATES   PERIOD      2   STEP       35
 ----------------------------------------------------------------------------------------
   NUMBER   CELLID                    RATE       NAME                                    
 ----------------------------------------------------------------------------------------
     1      (1,8,6)              -215.84304      WEL                                     
 ----------------------------------------------------------------------------------------




 API PACKAGE (MAR) FLOW RATES   PERIOD      2   STEP       35
 -----------------------------------------------
   NUMBER   CELLID                    RATE      
 -----------------------------------------------
     1      (1,6,5)               46.666667     
     2      (1,6,6)               46.666667     
     3      (1,6,7)               46.666667     
     4      (1,10,5)              25.281012     
     5      (1,10,6)              25.281012     
     6      (1,10,7)              25.281012     
 -----------------------------------------------



1
  HEAD IN LAYER   1 AT END OF TIME STEP  35 IN STRESS PERIOD    2
  ---------------------------------------------------------------------------

            1           2           3           4           5           6           7           8           9          10
 ........................................................................................................................
   1   6.3250E-04  1.4504E-03  3.4748E-03  6.9341E-03  1.0754E-02  1.2346E-02  1.0763E-02  6.9711E-03  3.6117E-03  1.8983E-03
   2   1.6340E-03  3.9196E-03  9.8184E-03  2.0445E-02  3.2781E-02  3.7776E-02  3.2802E-02  2.0535E-02  1.0164E-02  5.0934E-03
   3   4.4015E-03  1.1071E-02  2.9133E-02  6.3825E-02  0.1069      0.1233      0.1070      6.4056E-02  3.0042E-02  1.4276E-02
   4   9.8091E-03  2.6020E-02  7.2681E-02  0.1706      0.3068      0.3513      0.3069      0.1711      7.4650E-02  3.3248E-02
   5   1.6379E-02  4.6097E-02  0.1391      0.3635      0.7532      0.8368      0.7534      0.3643      0.1423      5.8292E-02
   6   1.6920E-02  4.9749E-02  0.1650      0.5251       1.615       1.623       1.616      0.5259      0.1683      6.2385E-02
   7   4.3986E-03  5.6797E-03 -4.8904E-03 -8.2880E-02 -0.4018      -1.535     -0.4017     -8.2537E-02 -3.7754E-03  8.5438E-03
   8  -4.7452E-03 -2.7053E-02 -0.1347     -0.5712      -2.185      -8.575      -2.185     -0.5712     -0.1352     -3.1381E-02
   9   2.6905E-03 -3.2970E-04 -2.8273E-02 -0.1641     -0.6249      -1.807     -0.6248     -0.1638     -2.7457E-02  1.2005E-03
  10   1.4051E-02  3.8884E-02  0.1182      0.3364      0.9487      0.8633      0.9489      0.3370      0.1209      4.9274E-02
  11   1.4247E-02  3.8861E-02  0.1121      0.2752      0.5304      0.5752      0.5305      0.2759      0.1149      4.9412E-02
  12   8.7265E-03  2.2733E-02  6.1891E-02  0.1402      0.2419      0.2742      0.2420      0.1406      6.3655E-02  2.9142E-02
  13   3.9668E-03  9.8711E-03  2.5589E-02  5.4940E-02  9.0037E-02  0.1033      9.0084E-02  5.5150E-02  2.6411E-02  1.2752E-02
  14   1.4846E-03  3.5381E-03  8.7851E-03  1.8085E-02  2.8652E-02  3.2907E-02  2.8671E-02  1.8167E-02  9.0999E-03  4.6028E-03
  15   5.7778E-04  1.3199E-03  3.1464E-03  6.2397E-03  9.6171E-03  1.1019E-02  9.6250E-03  6.2736E-03  3.2716E-03  1.7286E-03

 HEAD WILL BE SAVED ON UNIT 1043 AT END OF TIME STEP   35, STRESS PERIOD    2


  VOLUME BUDGET FOR ENTIRE MODEL AT END OF TIME STEP   35, STRESS PERIOD   2
  ---------------------------------------------------------------------------------------------------

     CUMULATIVE VOLUME      L**3       RATES FOR THIS TIME STEP      L**3/T          PACKAGE NAME    
     ------------------                 ------------------------                     ----------------

           IN:                                      IN:
           ---                                      ---
              STO-SS =          17.5865                STO-SS =       2.6571E-02     STORAGE                          
              STO-SY =       43924.0083                STO-SY =          55.6404     STORAGE                          
                 WEL =           0.0000                   WEL =           0.0000     WEL-1                            
                 API =       86963.2252                   API =         215.8430     MAR                              
                 CHD =       2.8247E-08                   CHD =           0.0000     CHD_0                            

            TOTAL IN =      130904.8200              TOTAL IN =         271.5100

          OUT:                                     OUT:
          ----                                     ----
              STO-SS =          22.8728                STO-SS =       2.8556E-02     STORAGE                          
              STO-SY =       43918.7221                STO-SY =          55.6384     STORAGE                          
                 WEL =       86963.2252                   WEL =         215.8430     WEL-1                            
                 API =           0.0000                   API =           0.0000     MAR                              
                 CHD =       3.0388E-08                   CHD =           0.0000     CHD_0                            

           TOTAL OUT =      130904.8200             TOTAL OUT =         271.5100

            IN - OUT =      -2.2090E-08              IN - OUT =       4.1359E-09

 PERCENT DISCREPANCY =          -0.00     PERCENT DISCREPANCY =           0.00




         TIME SUMMARY AT END OF TIME STEP   35 IN STRESS PERIOD    2
                    SECONDS     MINUTES      HOURS       DAYS        YEARS
                    -----------------------------------------------------------
   TIME STEP LENGTH 8.64000E+05  14400.      240.00      10.000     2.73785E-02
 STRESS PERIOD TIME 3.02400E+07 5.04000E+05  8400.0      350.00     0.95825    
         TOTAL TIME 3.03264E+07 5.05440E+05  8424.0      351.00     0.96099    


end timestep


start timestep kper="2" kstp="36" mode="normal"

 UBDSV1 SAVING           STO-SS ON UNIT   1042 AT TIME STEP     36, STRESS PERIOD      2
 UBDSV1 SAVING           STO-SY ON UNIT   1042 AT TIME STEP     36, STRESS PERIOD      2
 UBDSV1 SAVING     FLOW-JA-FACE ON UNIT   1042 AT TIME STEP     36, STRESS PERIOD      2
 UBDSV06 SAVING       DATA-SPDIS IN MODEL GWF              PACKAGE NPF             CONNECTED TO MODEL GWF              PACKAGE NPF              ON UNIT   1042 AT TIME STEP     36, STRESS PERIOD      2
 UBDSV06 SAVING              WEL IN MODEL GWF              PACKAGE GWF             CONNECTED TO MODEL GWF              PACKAGE WEL-1            ON UNIT   1042 AT TIME STEP     36, STRESS PERIOD      2
 UBDSV06 SAVING              API IN MODEL GWF              PACKAGE GWF             CONNECTED TO MODEL GWF              PACKAGE MAR              ON UNIT   1042 AT TIME STEP     36, STRESS PERIOD      2
 UBDSV06 SAVING              CHD IN MODEL GWF              PACKAGE GWF             CONNECTED TO MODEL GWF              PACKAGE CHD_0            ON UNIT   1042 AT TIME STEP     36, STRESS PERIOD      2

    CALCULATED INTERCELL FLOW FOR PERIOD 2 STEP 36
(1,1,1): (1,1,2) 9.179390E-03 (1,2,1) 1.121403E-02
(1,1,2): (1,1,1) -9.179390E-03 (1,1,3) 2.243386E-02 (1,2,2) 2.713096E-02
(1,1,3): (1,1,2) -2.243386E-02 (1,1,4) 3.782076E-02 (1,2,3) 6.864123E-02
(1,1,4): (1,1,3) -3.782076E-02 (1,1,5) 4.133874E-02 (1,2,4) 0.144519
(1,1,5): (1,1,4) -4.133874E-02 (1,1,6) 1.721848E-02 (1,2,5) 0.233953
(1,1,6): (1,1,5) -1.721848E-02 (1,1,7) -1.711301E-02 (1,2,6) 0.269777
(1,1,7): (1,1,6) 1.711301E-02 (1,1,8) -4.100119E-02 (1,2,7) 0.234095
(1,1,8): (1,1,7) 4.100119E-02 (1,1,9) -3.665567E-02 (1,2,8) 0.145140
(1,1,9): (1,1,8) 3.665567E-02 (1,1,10) -1.887607E-02 (1,2,9) 7.101179E-02
(1,1,10): (1,1,9) 1.887607E-02 (1,2,10) 3.521228E-02
(1,2,1): (1,1,1) -1.121403E-02 (1,2,2) 2.509599E-02 (1,3,1) 3.045572E-02
(1,2,2): (1,1,2) -2.713096E-02 (1,2,1) -2.509599E-02 (1,2,3) 6.394219E-02 (1,3,2) 7.723107E-02
(1,2,3): (1,1,3) -6.864123E-02 (1,2,2) -6.394219E-02 (1,2,4) 0.113675 (1,3,3) 0.205610
(1,2,4): (1,1,4) -0.144519 (1,2,3) -0.113675 (1,2,5) 0.130681 (1,3,4) 0.457518
(1,2,5): (1,1,5) -0.233953 (1,2,4) -0.130681 (1,2,6) 5.296600E-02 (1,3,5) 0.778909
(1,2,6): (1,1,6) -0.269777 (1,2,5) -5.296600E-02 (1,2,7) -5.271823E-02 (1,3,6) 0.898923
(1,2,7): (1,1,7) -0.234095 (1,2,6) 5.271823E-02 (1,2,8) -0.129864 (1,3,7) 0.779276
(1,2,8): (1,1,8) -0.145140 (1,2,7) 0.129864 (1,2,9) -0.110759 (1,3,8) 0.459134
(1,2,9): (1,1,9) -7.101179E-02 (1,2,8) 0.110759 (1,2,10) -5.466974E-02 (1,3,9) 0.211920
(1,2,10): (1,1,10) -3.521228E-02 (1,2,9) 5.466974E-02 (1,3,10) 9.948171E-02
(1,3,1): (1,2,1) -3.045572E-02 (1,3,2) 7.186884E-02 (1,4,1) 5.827581E-02
(1,3,2): (1,2,2) -7.723107E-02 (1,3,1) -7.186884E-02 (1,3,3) 0.192304 (1,4,2) 0.158218
(1,3,3): (1,2,3) -0.205610 (1,3,2) -0.192304 (1,3,4) 0.365355 (1,4,3) 0.455845
(1,3,4): (1,2,4) -0.457518 (1,3,3) -0.365355 (1,3,5) 0.451048 (1,4,4) 1.11504
(1,3,5): (1,2,5) -0.778909 (1,3,4) -0.451048 (1,3,6) 0.172139 (1,4,5) 2.09799
(1,3,6): (1,2,6) -0.898923 (1,3,5) -0.172139 (1,3,7) -0.171526 (1,4,6) 2.40152
(1,3,7): (1,2,7) -0.779276 (1,3,6) 0.171526 (1,3,8) -0.448979 (1,4,7) 2.09865
(1,3,8): (1,2,8) -0.459134 (1,3,7) 0.448979 (1,3,9) -0.357726 (1,4,8) 1.11797
(1,3,9): (1,2,9) -0.211920 (1,3,8) 0.357726 (1,3,10) -0.167058 (1,4,9) 0.467579
(1,3,10): (1,2,10) -9.948171E-02 (1,3,9) 0.167058 (1,4,10) 0.201542
(1,4,1): (1,3,1) -5.827581E-02 (1,4,2) 0.171825 (1,5,1) 6.892812E-02
(1,4,2): (1,3,2) -0.158218 (1,4,1) -0.171825 (1,4,3) 0.490031 (1,5,2) 0.207398
(1,4,3): (1,3,3) -0.455845 (1,4,2) -0.490031 (1,4,4) 1.02397 (1,5,3) 0.683401
(1,4,4): (1,3,4) -1.11504 (1,4,3) -1.02397 (1,4,5) 1.42791 (1,5,4) 2.01112
(1,4,5): (1,3,5) -2.09799 (1,4,4) -1.42791 (1,4,6) 0.470373 (1,5,5) 4.80940
(1,4,6): (1,3,6) -2.40152 (1,4,5) -0.470373 (1,4,7) -0.469102 (1,5,6) 5.26875
(1,4,7): (1,3,7) -2.09865 (1,4,6) 0.469102 (1,4,8) -1.42354 (1,5,7) 4.81016
(1,4,8): (1,3,8) -1.11797 (1,4,7) 1.42354 (1,4,9) -1.00742 (1,5,8) 2.01434
(1,4,9): (1,3,9) -0.467579 (1,4,8) 1.00742 (1,4,10) -0.433006 (1,5,9) 0.696677
(1,4,10): (1,3,10) -0.201542 (1,4,9) 0.433006 (1,5,10) 0.259673
(1,5,1): (1,4,1) -6.892812E-02 (1,5,2) 0.310435 (1,6,1) 3.246328E-03
(1,5,2): (1,4,2) -0.207398 (1,5,1) -0.310435 (1,5,3) 0.967342 (1,6,2) 3.043576E-02
(1,5,3): (1,4,3) -0.683401 (1,5,2) -0.967342 (1,5,4) 2.35589 (1,6,3) 0.245528
(1,5,4): (1,4,4) -2.01112 (1,5,3) -2.35589 (1,5,5) 4.21215 (1,6,4) 1.66026
(1,5,5): (1,4,5) -4.80940 (1,5,4) -4.21215 (1,5,6) 0.914115 (1,6,5) 9.94649
(1,5,6): (1,4,6) -5.26875 (1,5,5) -0.914115 (1,5,7) -0.912103 (1,6,6) 9.06359
(1,5,7): (1,4,7) -4.81016 (1,5,6) 0.912103 (1,5,8) -4.20516 (1,6,7) 9.94659
(1,5,8): (1,4,8) -2.01434 (1,5,7) 4.20516 (1,5,9) -2.32889 (1,6,8) 1.66028
(1,5,9): (1,4,9) -0.696677 (1,5,8) 2.32889 (1,5,10) -0.870745 (1,6,9) 0.245680
(1,5,10): (1,4,10) -0.259673 (1,5,9) 0.870745 (1,6,10) 3.324196E-02
(1,6,1): (1,5,1) -3.246328E-03 (1,6,2) 0.337707 (1,7,1) -0.133182
(1,6,2): (1,5,2) -3.043576E-02 (1,6,1) -0.337707 (1,6,3) 1.18438 (1,7,2) -0.461142
(1,6,3): (1,5,3) -0.245528 (1,6,2) -1.18438 (1,6,4) 3.79774 (1,7,3) -1.77054
(1,6,4): (1,5,4) -1.66026 (1,6,3) -3.79774 (1,6,5) 12.6616 (1,7,4) -6.48120
(1,6,5): (1,5,5) -9.94649 (1,6,4) -12.6616 (1,6,6) 9.026800E-02 (1,7,5) -23.5479
(1,6,6): (1,5,6) -9.06359 (1,6,5) -9.026800E-02 (1,6,7) -8.816463E-02 (1,7,6) -36.8095
(1,6,7): (1,5,7) -9.94659 (1,6,6) 8.816463E-02 (1,6,8) -12.6542 (1,7,7) -23.5492
(1,6,8): (1,5,8) -1.66028 (1,6,7) 12.6542 (1,6,9) -3.77025 (1,7,8) -6.48648
(1,6,9): (1,5,9) -0.245680 (1,6,8) 3.77025 (1,6,10) -1.08490 (1,7,9) -1.79428
(1,6,10): (1,5,10) -3.324196E-02 (1,6,9) 1.08490 (1,7,10) -0.565639
(1,7,1): (1,6,1) 0.133182 (1,7,2) 1.014756E-02 (1,8,1) -9.673918E-02
(1,7,2): (1,6,2) 0.461142 (1,7,1) -1.014756E-02 (1,7,3) -0.117764 (1,8,2) -0.340049
(1,7,3): (1,6,3) 1.77054 (1,7,2) 0.117764 (1,7,4) -0.806921 (1,8,3) -1.32826
(1,7,4): (1,6,4) 6.48120 (1,7,3) 0.806921 (1,7,5) -3.18613 (1,8,4) -4.89953
(1,7,5): (1,6,5) 23.5479 (1,7,4) 3.18613 (1,7,6) -10.8535 (1,8,5) -17.1751
(1,7,6): (1,6,6) 36.8095 (1,7,5) 10.8535 (1,7,7) 10.8546 (1,8,6) -59.5568
(1,7,7): (1,6,7) 23.5492 (1,7,6) -10.8546 (1,7,8) 3.18900 (1,8,7) -17.1759
(1,7,8): (1,6,8) 6.48648 (1,7,7) -3.18900 (1,7,9) 0.815200 (1,8,8) -4.90318
(1,7,9): (1,6,9) 1.79428 (1,7,8) -0.815200 (1,7,10) 0.135539 (1,8,9) -1.34518
(1,7,10): (1,6,10) 0.565639 (1,7,9) -0.135539 (1,8,10) -0.415915
(1,8,1): (1,7,1) 9.673918E-02 (1,8,2) -0.232904 (1,9,1) 7.757649E-02
(1,8,2): (1,7,2) 0.340049 (1,8,1) 0.232904 (1,8,3) -1.10378 (1,9,2) 0.273330
(1,8,3): (1,7,3) 1.32826 (1,8,2) 1.10378 (1,8,4) -4.35934 (1,9,3) 1.07047
(1,8,4): (1,7,4) 4.89953 (1,8,3) 4.35934 (1,8,5) -15.2376 (1,9,4) 3.99978
(1,8,5): (1,7,5) 17.1751 (1,8,4) 15.2376 (1,8,6) -49.7757 (1,9,5) 14.5474
(1,8,6): (1,7,6) 59.5568 (1,8,5) 49.7757 (1,8,7) 49.7762 (1,9,6) 55.1770
(1,8,7): (1,7,7) 17.1759 (1,8,6) -49.7762 (1,8,8) 15.2376 (1,9,7) 14.5480
(1,8,8): (1,7,8) 4.90318 (1,8,7) -15.2376 (1,8,9) 4.35411 (1,9,8) 4.00260
(1,8,9): (1,7,9) 1.34518 (1,8,8) -4.35411 (1,8,10) 1.06220 (1,9,9) 1.08392
(1,8,10): (1,7,10) 0.415915 (1,8,9) -1.06220 (1,9,10) 0.334171
(1,9,1): (1,8,1) -7.757649E-02 (1,9,2) -3.722868E-02 (1,10,1) 0.120217
(1,9,2): (1,8,2) -0.273330 (1,9,1) 3.722868E-02 (1,9,3) -0.306373 (1,10,2) 0.407482
(1,9,3): (1,8,3) -1.07047 (1,9,2) 0.306373 (1,9,4) -1.41954 (1,10,3) 1.50888
(1,9,4): (1,8,4) -3.99978 (1,9,3) 1.41954 (1,9,5) -4.61780 (1,10,4) 5.20027
(1,9,5): (1,8,5) -14.5474 (1,9,4) 4.61780 (1,9,6) -11.0750 (1,10,5) 17.1847
(1,9,6): (1,8,6) -55.1770 (1,9,5) 11.0750 (1,9,7) 11.0758 (1,10,6) 28.9075
(1,9,7): (1,8,7) -14.5480 (1,9,6) -11.0758 (1,9,8) 4.62010 (1,10,7) 17.1858
(1,9,8): (1,8,8) -4.00260 (1,9,7) -4.62010 (1,9,9) 1.42520 (1,10,8) 5.20496
(1,9,9): (1,8,9) -1.08392 (1,9,8) -1.42520 (1,9,10) 0.312617 (1,10,9) 1.53033
(1,9,10): (1,8,10) -0.334171 (1,9,9) -0.312617 (1,10,10) 0.501509
(1,10,1): (1,9,1) -0.120217 (1,10,2) 0.249601 (1,11,1) 4.833212E-03
(1,10,2): (1,9,2) -0.407482 (1,10,1) -0.249601 (1,10,3) 0.788227 (1,11,2) 8.852440E-03
(1,10,3): (1,9,3) -1.50888 (1,10,2) -0.788227 (1,10,4) 2.18884 (1,11,3) -3.202107E-02
(1,10,4): (1,9,4) -5.20027 (1,10,3) -2.18884 (1,10,5) 6.54693 (1,11,4) -0.550949
(1,10,5): (1,9,5) -17.1847 (1,10,4) -6.54693 (1,10,6) -0.975508 (1,11,5) -4.39153
(1,10,6): (1,9,6) -28.9075 (1,10,5) 0.975508 (1,10,7) 0.977253 (1,11,6) -2.92004
(1,10,7): (1,9,7) -17.1858 (1,10,6) -0.977253 (1,10,8) -6.54086 (1,11,7) -4.39153
(1,10,8): (1,9,8) -5.20496 (1,10,7) 6.54086 (1,10,9) -2.16613 (1,11,8) -0.550736
(1,10,9): (1,9,9) -1.53033 (1,10,8) 2.16613 (1,10,10) -0.708960 (1,11,9) -3.100377E-02
(1,10,10): (1,9,10) -0.501509 (1,10,9) 0.708960 (1,11,10) 1.272137E-02
(1,11,1): (1,10,1) -4.833212E-03 (1,11,2) 0.253630 (1,12,1) -5.719842E-02
(1,11,2): (1,10,2) -8.852440E-03 (1,11,1) -0.253630 (1,11,3) 0.747052 (1,12,2) -0.163599
(1,11,3): (1,10,3) 3.202107E-02 (1,11,2) -0.747052 (1,11,4) 1.66195 (1,12,3) -0.503709
(1,11,4): (1,10,4) 0.550949 (1,11,3) -1.66195 (1,11,5) 2.63762 (1,12,4) -1.35897
(1,11,5): (1,10,5) 4.39153 (1,11,4) -2.63762 (1,11,6) 0.456447 (1,12,5) -2.96016
(1,11,6): (1,10,6) 2.92004 (1,11,5) -0.456447 (1,11,7) -0.454711 (1,12,6) -3.08871
(1,11,7): (1,10,7) 4.39153 (1,11,6) 0.454711 (1,11,8) -2.63153 (1,12,7) -2.96078
(1,11,8): (1,10,8) 0.550736 (1,11,7) 2.63153 (1,11,9) -1.63854 (1,12,8) -1.36169
(1,11,9): (1,10,9) 3.100377E-02 (1,11,8) 1.63854 (1,11,10) -0.664946 (1,12,9) -0.514915
(1,11,10): (1,10,10) -1.272137E-02 (1,11,9) 0.664946 (1,12,10) -0.206543
(1,12,1): (1,11,1) 5.719842E-02 (1,12,2) 0.147135 (1,13,1) -5.096233E-02
(1,12,2): (1,11,2) 0.163599 (1,12,1) -0.147135 (1,12,3) 0.406135 (1,13,2) -0.134848
(1,12,3): (1,11,3) 0.503709 (1,12,2) -0.406135 (1,12,4) 0.804266 (1,13,3) -0.374906
(1,12,4): (1,11,4) 1.35897 (1,12,3) -0.804266 (1,12,5) 1.04098 (1,13,4) -0.873832
(1,12,5): (1,11,5) 2.96016 (1,12,4) -1.04098 (1,12,6) 0.330645 (1,13,5) -1.55633
(1,12,6): (1,11,6) 3.08871 (1,12,5) -0.330645 (1,12,7) -0.329517 (1,13,6) -1.75309
(1,12,7): (1,11,7) 2.96078 (1,12,6) 0.329517 (1,12,8) -1.03709 (1,13,7) -1.55691
(1,12,8): (1,11,8) 1.36169 (1,12,7) 1.03709 (1,12,9) -0.789561 (1,13,8) -0.876419
(1,12,9): (1,11,9) 0.514915 (1,12,8) 0.789561 (1,12,10) -0.356125 (1,13,9) -0.385251
(1,12,10): (1,11,10) 0.206543 (1,12,9) 0.356125 (1,13,10) -0.172524
(1,13,1): (1,12,1) 5.096233E-02 (1,13,2) 6.323945E-02 (1,14,1) -2.720597E-02
(1,13,2): (1,12,2) 0.134848 (1,13,1) -6.323945E-02 (1,13,3) 0.166002 (1,14,2) -6.798980E-02
(1,13,3): (1,12,3) 0.374906 (1,13,2) -0.166002 (1,13,4) 0.305676 (1,14,3) -0.177427
(1,13,4): (1,12,4) 0.873832 (1,13,3) -0.305676 (1,13,5) 0.361792 (1,14,4) -0.384484
(1,13,5): (1,12,5) 1.55633 (1,13,4) -0.361792 (1,13,6) 0.136475 (1,14,5) -0.636020
(1,13,6): (1,12,6) 1.75309 (1,13,5) -0.136475 (1,13,7) -0.135921 (1,14,6) -0.728335
(1,13,7): (1,12,7) 1.55691 (1,13,6) 0.135921 (1,13,8) -0.359921 (1,14,7) -0.636349
(1,13,8): (1,12,8) 0.876419 (1,13,7) 0.359921 (1,13,9) -0.298805 (1,14,8) -0.385938
(1,13,9): (1,12,9) 0.385251 (1,13,8) 0.298805 (1,13,10) -0.143459 (1,14,9) -0.183090
(1,13,10): (1,12,10) 0.172524 (1,13,9) 0.143459 (1,14,10) -8.779865E-02
(1,14,1): (1,13,1) 2.720597E-02 (1,14,2) 2.245754E-02 (1,15,1) -1.012436E-02
(1,14,2): (1,13,2) 6.798980E-02 (1,14,1) -2.245754E-02 (1,14,3) 5.657779E-02 (1,15,2) -2.427490E-02
(1,14,3): (1,13,3) 0.177427 (1,14,2) -5.657779E-02 (1,14,4) 9.877935E-02 (1,15,3) -6.068106E-02
(1,14,4): (1,13,4) 0.384484 (1,14,3) -9.877935E-02 (1,14,5) 0.110929 (1,15,4) -0.125808
(1,14,5): (1,13,5) 0.636020 (1,14,4) -0.110929 (1,14,6) 4.468978E-02 (1,15,5) -0.200457
(1,14,6): (1,13,6) 0.728335 (1,14,5) -4.468978E-02 (1,14,7) -4.446422E-02 (1,15,6) -0.230120
(1,14,7): (1,13,7) 0.636349 (1,14,6) 4.446422E-02 (1,14,8) -0.110186 (1,15,7) -0.200586
(1,14,8): (1,13,8) 0.385938 (1,14,7) 0.110186 (1,14,9) -9.613100E-02 (1,15,8) -0.126372
(1,14,9): (1,13,9) 0.183090 (1,14,8) 9.613100E-02 (1,14,10) -4.820426E-02 (1,15,9) -6.282778E-02
(1,14,10): (1,13,10) 8.779865E-02 (1,14,9) 4.820426E-02 (1,15,10) -3.155476E-02
(1,15,1): (1,14,1) 1.012436E-02 (1,15,2) 8.307259E-03
(1,15,2): (1,14,2) 2.427490E-02 (1,15,1) -8.307259E-03 (1,15,3) 2.017312E-02
(1,15,3): (1,14,3) 6.068106E-02 (1,15,2) -2.017312E-02 (1,15,4) 3.367001E-02
(1,15,4): (1,14,4) 0.125808 (1,15,3) -3.367001E-02 (1,15,5) 3.634649E-02
(1,15,5): (1,14,5) 0.200457 (1,15,4) -3.634649E-02 (1,15,6) 1.508143E-02
(1,15,6): (1,14,6) 0.230120 (1,15,5) -1.508143E-02 (1,15,7) -1.498490E-02
(1,15,7): (1,14,7) 0.200586 (1,15,6) 1.498490E-02 (1,15,8) -3.603771E-02
(1,15,8): (1,14,8) 0.126372 (1,15,7) 3.603771E-02 (1,15,9) -3.260624E-02
(1,15,9): (1,14,9) 6.282778E-02 (1,15,8) 3.260624E-02 (1,15,10) -1.693580E-02
(1,15,10): (1,14,10) 3.155476E-02 (1,15,9) 1.693580E-02

 WEL PACKAGE (WEL-1) FLOW RATES   PERIOD      2   STEP       36
 ----------------------------------------------------------------------------------------
   NUMBER   CELLID                    RATE       NAME                                    
 ----------------------------------------------------------------------------------------
     1      (1,8,6)              -215.13594      WEL                                     
 ----------------------------------------------------------------------------------------




 API PACKAGE (MAR) FLOW RATES   PERIOD      2   STEP       36
 -----------------------------------------------
   NUMBER   CELLID                    RATE      
 -----------------------------------------------
     1      (1,6,5)               46.666667     
     2      (1,6,6)               46.666667     
     3      (1,6,7)               46.666667     
     4      (1,10,5)              25.045315     
     5      (1,10,6)              25.045315     
     6      (1,10,7)              25.045315     
 -----------------------------------------------



1
  HEAD IN LAYER   1 AT END OF TIME STEP  36 IN STRESS PERIOD    2
  ---------------------------------------------------------------------------

            1           2           3           4           5           6           7           8           9          10
 ........................................................................................................................
   1   7.3442E-04  1.6522E-03  3.8947E-03  7.6739E-03  1.1803E-02  1.3522E-02  1.1813E-02  7.7181E-03  4.0554E-03  2.1686E-03
   2   1.8556E-03  4.3641E-03  1.0751E-02  2.2094E-02  3.5116E-02  4.0392E-02  3.5141E-02  2.2200E-02  1.1149E-02  5.6878E-03
   3   4.8997E-03  1.2078E-02  3.1248E-02  6.7539E-02  0.1121      0.1291      0.1122      6.7804E-02  3.2273E-02  1.5620E-02
   4   1.0721E-02  2.7856E-02  7.6487E-02  0.1771      0.3155      0.3609      0.3156      0.1776      7.8666E-02  3.5703E-02
   5   1.7602E-02  4.8495E-02  0.1439      0.3710      0.7624      0.8467      0.7626      0.3719      0.1473      6.1511E-02
   6   1.7926E-02  5.1523E-02  0.1680      0.5287       1.618       1.626       1.619      0.5295      0.1715      6.4814E-02
   7   4.6314E-03  5.6456E-03 -6.1242E-03 -8.6866E-02 -0.4083      -1.540     -0.4082     -8.6488E-02 -4.9276E-03  8.6146E-03
   8  -5.0380E-03 -2.8340E-02 -0.1390     -0.5811      -2.199      -8.579      -2.199     -0.5811     -0.1395     -3.2941E-02
   9   2.7175E-03 -1.0043E-03 -3.1645E-02 -0.1740     -0.6440      -1.828     -0.6439     -0.1737     -3.0786E-02  4.7448E-04
  10   1.4722E-02  3.9583E-02  0.1175      0.3294      0.9285      0.8392      0.9286      0.3301      0.1204      5.0374E-02
  11   1.5204E-02  4.0465E-02  0.1143      0.2761      0.5266      0.5698      0.5268      0.2768      0.1174      5.1640E-02
  12   9.4930E-03  2.4171E-02  6.4524E-02  0.1438      0.2454      0.2776      0.2455      0.1443      6.6469E-02  3.1091E-02
  13   4.4016E-03  1.0719E-02  2.7274E-02  5.7666E-02  9.3510E-02  0.1070      9.3565E-02  5.7906E-02  2.8198E-02  1.3892E-02
  14   1.6822E-03  3.9270E-03  9.5794E-03  1.9438E-02  3.0497E-02  3.4951E-02  3.0520E-02  1.9535E-02  9.9404E-03  5.1248E-03
  15   6.6989E-04  1.5005E-03  3.5171E-03  6.8818E-03  1.0513E-02  1.2019E-02  1.0522E-02  6.9223E-03  3.6639E-03  1.9709E-03

 HEAD WILL BE SAVED ON UNIT 1043 AT END OF TIME STEP   36, STRESS PERIOD    2


  VOLUME BUDGET FOR ENTIRE MODEL AT END OF TIME STEP   36, STRESS PERIOD   2
  ---------------------------------------------------------------------------------------------------

     CUMULATIVE VOLUME      L**3       RATES FOR THIS TIME STEP      L**3/T          PACKAGE NAME    
     ------------------                 ------------------------                     ----------------

           IN:                                      IN:
           ---                                      ---
              STO-SS =          17.8464                STO-SS =       2.5981E-02     STORAGE                          
              STO-SY =       44467.5349                STO-SY =          54.3527     STORAGE                          
                 WEL =           0.0000                   WEL =           0.0000     WEL-1                            
                 API =       89114.5846                   API =         215.1359     MAR                              
                 CHD =       2.8247E-08                   CHD =           0.0000     CHD_0                            

            TOTAL IN =      133599.9659              TOTAL IN =         269.5146

          OUT:                                     OUT:
          ----                                     ----
              STO-SS =          23.1516                STO-SS =       2.7889E-02     STORAGE                          
              STO-SY =       44462.2297                STO-SY =          54.3508     STORAGE                          
                 WEL =       89114.5846                   WEL =         215.1359     WEL-1                            
                 API =           0.0000                   API =           0.0000     MAR                              
                 CHD =       3.0388E-08                   CHD =           0.0000     CHD_0                            

           TOTAL OUT =      133599.9659             TOTAL OUT =         269.5146

            IN - OUT =       1.6909E-08              IN - OUT =       3.8985E-09

 PERCENT DISCREPANCY =           0.00     PERCENT DISCREPANCY =           0.00




         TIME SUMMARY AT END OF TIME STEP   36 IN STRESS PERIOD    2
                    SECONDS     MINUTES      HOURS       DAYS        YEARS
                    -----------------------------------------------------------
   TIME STEP LENGTH 8.64000E+05  14400.      240.00      10.000     2.73785E-02
 STRESS PERIOD TIME 3.11040E+07 5.18400E+05  8640.0      360.00     0.98563    
         TOTAL TIME 3.11904E+07 5.19840E+05  8664.0      361.00     0.98836    


end timestep


start timestep kper="2" kstp="37" mode="normal"

 UBDSV1 SAVING           STO-SS ON UNIT   1042 AT TIME STEP     37, STRESS PERIOD      2
 UBDSV1 SAVING           STO-SY ON UNIT   1042 AT TIME STEP     37, STRESS PERIOD      2
 UBDSV1 SAVING     FLOW-JA-FACE ON UNIT   1042 AT TIME STEP     37, STRESS PERIOD      2
 UBDSV06 SAVING       DATA-SPDIS IN MODEL GWF              PACKAGE NPF             CONNECTED TO MODEL GWF              PACKAGE NPF              ON UNIT   1042 AT TIME STEP     37, STRESS PERIOD      2
 UBDSV06 SAVING              WEL IN MODEL GWF              PACKAGE GWF             CONNECTED TO MODEL GWF              PACKAGE WEL-1            ON UNIT   1042 AT TIME STEP     37, STRESS PERIOD      2
 UBDSV06 SAVING              API IN MODEL GWF              PACKAGE GWF             CONNECTED TO MODEL GWF              PACKAGE MAR              ON UNIT   1042 AT TIME STEP     37, STRESS PERIOD      2
 UBDSV06 SAVING              CHD IN MODEL GWF              PACKAGE GWF             CONNECTED TO MODEL GWF              PACKAGE CHD_0            ON UNIT   1042 AT TIME STEP     37, STRESS PERIOD      2

    CALCULATED INTERCELL FLOW FOR PERIOD 2 STEP 37
(1,1,1): (1,1,2) 1.025027E-02 (1,2,1) 1.249133E-02
(1,1,2): (1,1,1) -1.025027E-02 (1,1,3) 2.474348E-02 (1,2,2) 2.966863E-02
(1,1,3): (1,1,2) -2.474348E-02 (1,1,4) 4.116460E-02 (1,2,3) 7.391599E-02
(1,1,4): (1,1,3) -4.116460E-02 (1,1,5) 4.453677E-02 (1,2,4) 0.153759
(1,1,5): (1,1,4) -4.453677E-02 (1,1,6) 1.854141E-02 (1,2,5) 0.246946
(1,1,6): (1,1,5) -1.854141E-02 (1,1,7) -1.841401E-02 (1,2,6) 0.284296
(1,1,7): (1,1,6) 1.841401E-02 (1,1,8) -4.413785E-02 (1,2,7) 0.247112
(1,1,8): (1,1,7) 4.413785E-02 (1,1,9) -3.981426E-02 (1,2,8) 0.154472
(1,1,9): (1,1,8) 3.981426E-02 (1,1,10) -2.069661E-02 (1,2,9) 7.658617E-02
(1,1,10): (1,1,9) 2.069661E-02 (1,2,10) 3.861267E-02
(1,2,1): (1,1,1) -1.249133E-02 (1,2,2) 2.742718E-02 (1,3,1) 3.335374E-02
(1,2,2): (1,1,2) -2.966863E-02 (1,2,1) -2.742718E-02 (1,2,3) 6.898867E-02 (1,3,2) 8.299759E-02
(1,2,3): (1,1,3) -7.391599E-02 (1,2,2) -6.898867E-02 (1,2,4) 0.120982 (1,3,3) 0.217550
(1,2,4): (1,1,4) -0.153759 (1,2,3) -0.120982 (1,2,5) 0.137623 (1,3,4) 0.478219
(1,2,5): (1,1,5) -0.246946 (1,2,4) -0.137623 (1,2,6) 5.580746E-02 (1,3,5) 0.807623
(1,2,6): (1,1,6) -0.284296 (1,2,5) -5.580746E-02 (1,2,7) -5.551406E-02 (1,3,6) 0.930813
(1,2,7): (1,1,7) -0.247112 (1,2,6) 5.551406E-02 (1,2,8) -0.136677 (1,3,7) 0.808045
(1,2,8): (1,1,8) -0.154472 (1,2,7) 0.136677 (1,2,9) -0.117672 (1,3,8) 0.480044
(1,2,9): (1,1,9) -7.658617E-02 (1,2,8) 0.117672 (1,2,10) -5.866333E-02 (1,3,9) 0.224543
(1,2,10): (1,1,10) -3.861267E-02 (1,2,9) 5.866333E-02 (1,3,10) 0.107213
(1,3,1): (1,2,1) -3.335374E-02 (1,3,2) 7.706810E-02 (1,4,1) 6.250084E-02
(1,3,2): (1,2,2) -8.299759E-02 (1,3,1) -7.706810E-02 (1,3,3) 0.203523 (1,4,2) 0.166509
(1,3,3): (1,2,3) -0.217550 (1,3,2) -0.203523 (1,3,4) 0.381403 (1,4,3) 0.472545
(1,3,4): (1,2,4) -0.478219 (1,3,3) -0.381403 (1,3,5) 0.465935 (1,4,4) 1.14270
(1,3,5): (1,2,5) -0.807623 (1,3,4) -0.465935 (1,3,6) 0.178105 (1,4,5) 2.13432
(1,3,6): (1,2,6) -0.930813 (1,3,5) -0.178105 (1,3,7) -0.177392 (1,4,6) 2.44102
(1,3,7): (1,2,7) -0.808045 (1,3,6) 0.177392 (1,3,8) -0.463582 (1,4,7) 2.13507
(1,3,8): (1,2,8) -0.480044 (1,3,7) 0.463582 (1,3,9) -0.372903 (1,4,8) 1.14594
(1,3,9): (1,2,9) -0.224543 (1,3,8) 0.372903 (1,3,10) -0.175937 (1,4,9) 0.485285
(1,3,10): (1,2,10) -0.107213 (1,3,9) 0.175937 (1,4,10) 0.212694
(1,4,1): (1,3,1) -6.250084E-02 (1,4,2) 0.181091 (1,5,1) 7.195833E-02
(1,4,2): (1,3,2) -0.166509 (1,4,1) -0.181091 (1,4,3) 0.509670 (1,5,2) 0.212715
(1,4,3): (1,3,3) -0.472545 (1,4,2) -0.509670 (1,4,4) 1.05097 (1,5,3) 0.692229
(1,4,4): (1,3,4) -1.14270 (1,4,3) -1.05097 (1,4,5) 1.45130 (1,5,4) 2.02122
(1,4,5): (1,3,5) -2.13432 (1,4,4) -1.45130 (1,4,6) 0.479381 (1,5,5) 4.81569
(1,4,6): (1,3,6) -2.44102 (1,4,5) -0.479381 (1,4,7) -0.477927 (1,5,6) 5.27339
(1,4,7): (1,3,7) -2.13507 (1,4,6) 0.477927 (1,4,8) -1.44642 (1,5,7) 4.81652
(1,4,8): (1,3,8) -1.14594 (1,4,7) 1.44642 (1,4,9) -1.03284 (1,5,8) 2.02469
(1,4,9): (1,3,9) -0.485285 (1,4,8) 1.03284 (1,4,10) -0.448430 (1,5,9) 0.706255
(1,4,10): (1,3,10) -0.212694 (1,4,9) 0.448430 (1,5,10) 0.266978
(1,5,1): (1,4,1) -7.195833E-02 (1,5,2) 0.322000 (1,6,1) 8.551963E-04
(1,5,2): (1,4,2) -0.212715 (1,5,1) -0.322000 (1,5,3) 0.990567 (1,6,2) 2.381926E-02
(1,5,3): (1,4,3) -0.692229 (1,5,2) -0.990567 (1,5,4) 2.38439 (1,6,3) 0.227290
(1,5,4): (1,4,4) -2.02122 (1,5,3) -2.38439 (1,5,5) 4.23210 (1,6,4) 1.62014
(1,5,5): (1,4,5) -4.81569 (1,5,4) -4.23210 (1,5,6) 0.921581 (1,6,5) 9.87981
(1,5,6): (1,4,6) -5.27339 (1,5,5) -0.921581 (1,5,7) -0.919313 (1,6,6) 8.99094
(1,5,7): (1,4,7) -4.81652 (1,5,6) 0.919313 (1,5,8) -4.22440 (1,6,7) 9.87990
(1,5,8): (1,4,8) -2.02469 (1,5,7) 4.22440 (1,5,9) -2.35527 (1,6,8) 1.62005
(1,5,9): (1,4,9) -0.706255 (1,5,8) 2.35527 (1,5,10) -0.888479 (1,6,9) 0.226963
(1,5,10): (1,4,10) -0.266978 (1,5,9) 0.888479 (1,6,10) 2.479276E-02
(1,6,1): (1,5,1) -8.551963E-04 (1,6,2) 0.345037 (1,7,1) -0.141048
(1,6,2): (1,5,2) -2.381926E-02 (1,6,1) -0.345037 (1,6,3) 1.19594 (1,7,2) -0.479213
(1,6,3): (1,5,3) -0.227290 (1,6,2) -1.19594 (1,6,4) 3.80451 (1,7,3) -1.81257
(1,6,4): (1,5,4) -1.62014 (1,6,3) -3.80451 (1,6,5) 12.6582 (1,7,4) -6.55920
(1,6,5): (1,5,5) -9.87981 (1,6,4) -12.6582 (1,6,6) 9.164030E-02 (1,7,5) -23.6563
(1,6,6): (1,5,6) -8.99094 (1,6,5) -9.164030E-02 (1,6,7) -8.929635E-02 (1,7,6) -36.9076
(1,6,7): (1,5,7) -9.87990 (1,6,6) 8.929635E-02 (1,6,8) -12.6502 (1,7,7) -23.6578
(1,6,8): (1,5,8) -1.62005 (1,6,7) 12.6502 (1,6,9) -3.77527 (1,7,8) -6.56498
(1,6,9): (1,5,9) -0.226963 (1,6,8) 3.77527 (1,6,10) -1.09234 (1,7,9) -1.83803
(1,6,10): (1,5,10) -2.479276E-02 (1,6,9) 1.09234 (1,7,10) -0.589348
(1,7,1): (1,6,1) 0.141048 (1,7,2) 7.320185E-03 (1,8,1) -0.102061
(1,7,2): (1,6,2) 0.479213 (1,7,1) -7.320185E-03 (1,7,3) -0.129667 (1,8,2) -0.352463
(1,7,3): (1,6,3) 1.81257 (1,7,2) 0.129667 (1,7,4) -0.832790 (1,8,3) -1.35773
(1,7,4): (1,6,4) 6.55920 (1,7,3) 0.832790 (1,7,5) -3.20653 (1,8,4) -4.95379
(1,7,5): (1,6,5) 23.6563 (1,7,4) 3.20653 (1,7,6) -10.8340 (1,8,5) -17.2339
(1,7,6): (1,6,6) 36.9076 (1,7,5) 10.8340 (1,7,7) 10.8352 (1,8,6) -59.5177
(1,7,7): (1,6,7) 23.6578 (1,7,6) -10.8352 (1,7,8) 3.20965 (1,8,7) -17.2348
(1,7,8): (1,6,8) 6.56498 (1,7,7) -3.20965 (1,7,9) 0.841536 (1,8,8) -4.95776
(1,7,9): (1,6,9) 1.83803 (1,7,8) -0.841536 (1,7,10) 0.147610 (1,8,9) -1.37581
(1,7,10): (1,6,10) 0.589348 (1,7,9) -0.147610 (1,8,10) -0.432135
(1,8,1): (1,7,1) 0.102061 (1,8,2) -0.242808 (1,9,1) 8.065013E-02
(1,8,2): (1,7,2) 0.352463 (1,8,1) 0.242808 (1,8,3) -1.13269 (1,9,2) 0.278887
(1,8,3): (1,7,3) 1.35773 (1,8,2) 1.13269 (1,8,4) -4.40973 (1,9,3) 1.07752
(1,8,4): (1,7,4) 4.95379 (1,8,3) 4.40973 (1,8,5) -15.2578 (1,9,4) 3.99190
(1,8,5): (1,7,5) 17.2339 (1,8,4) 15.2578 (1,8,6) -49.6187 (1,9,5) 14.4701
(1,8,6): (1,7,6) 59.5177 (1,8,5) 49.6187 (1,8,7) 49.6192 (1,9,6) 54.9136
(1,8,7): (1,7,7) 17.2348 (1,8,6) -49.6192 (1,8,8) 15.2578 (1,9,7) 14.4708
(1,8,8): (1,7,8) 4.95776 (1,8,7) -15.2578 (1,8,9) 4.40410 (1,9,8) 3.99494
(1,8,9): (1,7,9) 1.37581 (1,8,8) -4.40410 (1,8,10) 1.08860 (1,9,9) 1.09168
(1,8,10): (1,7,10) 0.432135 (1,8,9) -1.08860 (1,9,10) 0.341820
(1,9,1): (1,8,1) -8.065013E-02 (1,9,2) -4.464267E-02 (1,10,1) 0.126682
(1,9,2): (1,8,2) -0.278887 (1,9,1) 4.464267E-02 (1,9,3) -0.333623 (1,10,2) 0.420943
(1,9,3): (1,8,3) -1.07752 (1,9,2) 0.333623 (1,9,4) -1.48319 (1,10,3) 1.53436
(1,9,4): (1,8,4) -3.99190 (1,9,3) 1.48319 (1,9,5) -4.69741 (1,10,4) 5.22542
(1,9,5): (1,8,5) -14.4701 (1,9,4) 4.69741 (1,9,6) -11.0659 (1,10,5) 17.1405
(1,9,6): (1,8,6) -54.9136 (1,9,5) 11.0659 (1,9,7) 11.0669 (1,10,6) 28.8071
(1,9,7): (1,8,7) -14.4708 (1,9,6) -11.0669 (1,9,8) 4.69989 (1,10,7) 17.1416
(1,9,8): (1,8,8) -3.99494 (1,9,7) -4.69989 (1,9,9) 1.48899 (1,10,8) 5.23051
(1,9,9): (1,8,9) -1.09168 (1,9,8) -1.48899 (1,9,10) 0.338757 (1,10,9) 1.55726
(1,9,10): (1,8,10) -0.341820 (1,9,9) -0.338757 (1,10,10) 0.519517
(1,10,1): (1,9,1) -0.126682 (1,10,2) 0.249138 (1,11,1) 7.949196E-03
(1,10,2): (1,9,2) -0.420943 (1,10,1) -0.249138 (1,10,3) 0.772641 (1,11,2) 1.830539E-02
(1,10,3): (1,9,3) -1.53436 (1,10,2) -0.772641 (1,10,4) 2.12348 (1,11,3) -2.464478E-03
(1,10,4): (1,9,4) -5.22542 (1,10,3) -2.12348 (1,10,5) 6.39782 (1,11,4) -0.472655
(1,10,5): (1,9,5) -17.1405 (1,10,4) -6.39782 (1,10,6) -1.01382 (1,11,5) -4.21338
(1,10,6): (1,9,6) -28.8071 (1,10,5) 1.01382 (1,10,7) 1.01575 (1,11,6) -2.72297
(1,10,7): (1,9,7) -17.1416 (1,10,6) -1.01575 (1,10,8) -6.39127 (1,11,7) -4.21336
(1,10,8): (1,9,8) -5.23051 (1,10,7) 6.39127 (1,10,9) -2.09958 (1,11,8) -0.472308
(1,10,9): (1,9,9) -1.55726 (1,10,8) 2.09958 (1,10,10) -0.691390 (1,11,9) -8.574146E-04
(1,10,10): (1,9,10) -0.519517 (1,10,9) 0.691390 (1,11,10) 2.458752E-02
(1,11,1): (1,10,1) -7.949196E-03 (1,11,2) 0.259518 (1,12,1) -5.892353E-02
(1,11,2): (1,10,2) -1.830539E-02 (1,11,1) -0.259518 (1,11,3) 0.751717 (1,12,2) -0.164692
(1,11,3): (1,10,3) 2.464478E-03 (1,11,2) -0.751717 (1,11,4) 1.64601 (1,12,3) -0.498176
(1,11,4): (1,10,4) 0.472655 (1,11,3) -1.64601 (1,11,5) 2.58891 (1,12,4) -1.32888
(1,11,5): (1,10,5) 4.21338 (1,11,4) -2.58891 (1,11,6) 0.438878 (1,12,5) -2.88330
(1,11,6): (1,10,6) 2.72297 (1,11,5) -0.438878 (1,11,7) -0.436931 (1,12,6) -2.99521
(1,11,7): (1,10,7) 4.21336 (1,11,6) 0.436931 (1,11,8) -2.58225 (1,12,7) -2.88397
(1,11,8): (1,10,8) 0.472308 (1,11,7) 2.58225 (1,11,9) -1.62093 (1,12,8) -1.33179
(1,11,9): (1,10,9) 8.574146E-04 (1,11,8) 1.62093 (1,11,10) -0.665778 (1,12,9) -0.509884
(1,11,10): (1,10,10) -2.458752E-02 (1,11,9) 0.665778 (1,12,10) -0.208613
(1,12,1): (1,11,1) 5.892353E-02 (1,12,2) 0.153651 (1,13,1) -5.428245E-02
(1,12,2): (1,11,2) 0.164692 (1,12,1) -0.153651 (1,12,3) 0.417410 (1,13,2) -0.140535
(1,12,3): (1,11,3) 0.498176 (1,12,2) -0.417410 (1,12,4) 0.812827 (1,13,3) -0.383610
(1,12,4): (1,11,4) 1.32888 (1,12,3) -0.812827 (1,12,5) 1.03855 (1,13,4) -0.881071
(1,12,5): (1,11,5) 2.88330 (1,12,4) -1.03855 (1,12,6) 0.329266 (1,13,5) -1.55408
(1,12,6): (1,11,6) 2.99521 (1,12,5) -0.329266 (1,12,7) -0.327979 (1,13,6) -1.74673
(1,12,7): (1,11,7) 2.88397 (1,12,6) 0.327979 (1,12,8) -1.03421 (1,13,7) -1.55473
(1,12,8): (1,11,8) 1.33179 (1,12,7) 1.03421 (1,12,9) -0.796797 (1,13,8) -0.883920
(1,12,9): (1,11,9) 0.509884 (1,12,8) 0.796797 (1,12,10) -0.364051 (1,13,9) -0.394775
(1,12,10): (1,11,10) 0.208613 (1,12,9) 0.364051 (1,13,10) -0.180391
(1,13,1): (1,12,1) 5.428245E-02 (1,13,2) 6.738679E-02 (1,14,1) -2.966443E-02
(1,13,2): (1,12,2) 0.140535 (1,13,1) -6.738679E-02 (1,13,3) 0.174254 (1,14,2) -7.261550E-02
(1,13,3): (1,12,3) 0.383610 (1,13,2) -0.174254 (1,13,4) 0.315693 (1,14,3) -0.186177
(1,13,4): (1,12,4) 0.881071 (1,13,3) -0.315693 (1,13,5) 0.368801 (1,14,4) -0.397674
(1,13,5): (1,12,5) 1.55408 (1,13,4) -0.368801 (1,13,6) 0.139133 (1,14,5) -0.651397
(1,13,6): (1,12,6) 1.74673 (1,13,5) -0.139133 (1,13,7) -0.138491 (1,14,6) -0.744440
(1,13,7): (1,12,7) 1.55473 (1,13,6) 0.138491 (1,13,8) -0.366679 (1,14,7) -0.651774
(1,13,8): (1,12,8) 0.883920 (1,13,7) 0.366679 (1,13,9) -0.308063 (1,14,8) -0.399310
(1,13,9): (1,12,9) 0.394775 (1,13,8) 0.308063 (1,13,10) -0.149731 (1,14,9) -0.192430
(1,13,10): (1,12,10) 0.180391 (1,13,9) 0.149731 (1,14,10) -9.406714E-02
(1,14,1): (1,13,1) 2.966443E-02 (1,14,2) 2.443796E-02 (1,15,1) -1.124259E-02
(1,14,2): (1,13,2) 7.261550E-02 (1,14,1) -2.443796E-02 (1,14,3) 6.070564E-02 (1,15,2) -2.643083E-02
(1,14,3): (1,13,3) 0.186177 (1,14,2) -6.070564E-02 (1,14,4) 0.104368 (1,15,3) -6.496823E-02
(1,14,4): (1,13,4) 0.397674 (1,14,3) -0.104368 (1,14,5) 0.115776 (1,15,4) -0.132880
(1,14,5): (1,13,5) 0.651397 (1,14,4) -0.115776 (1,14,6) 4.663631E-02 (1,15,5) -0.209793
(1,14,6): (1,13,6) 0.744440 (1,14,5) -4.663631E-02 (1,14,7) -4.636960E-02 (1,15,6) -0.240345
(1,14,7): (1,13,7) 0.651774 (1,14,6) 4.636960E-02 (1,14,8) -0.114917 (1,15,7) -0.209943
(1,14,8): (1,13,8) 0.399310 (1,14,7) 0.114917 (1,14,9) -0.101369 (1,15,8) -0.133525
(1,14,9): (1,13,9) 0.192430 (1,14,8) 0.101369 (1,14,10) -5.140992E-02 (1,15,9) -6.737986E-02
(1,14,10): (1,13,10) 9.406714E-02 (1,14,9) 5.140992E-02 (1,15,10) -3.445981E-02
(1,15,1): (1,14,1) 1.124259E-02 (1,15,2) 9.250015E-03
(1,15,2): (1,14,2) 2.643083E-02 (1,15,1) -9.250015E-03 (1,15,3) 2.216989E-02
(1,15,3): (1,14,3) 6.496823E-02 (1,15,2) -2.216989E-02 (1,15,4) 3.647617E-02
(1,15,4): (1,14,4) 0.132880 (1,15,3) -3.647617E-02 (1,15,5) 3.893468E-02
(1,15,5): (1,14,5) 0.209793 (1,15,4) -3.893468E-02 (1,15,6) 1.614263E-02
(1,15,6): (1,14,6) 0.240345 (1,15,5) -1.614263E-02 (1,15,7) -1.602615E-02
(1,15,7): (1,14,7) 0.209943 (1,15,6) 1.602615E-02 (1,15,8) -3.857018E-02
(1,15,8): (1,14,8) 0.133525 (1,15,7) 3.857018E-02 (1,15,9) -3.524515E-02
(1,15,9): (1,14,9) 6.737986E-02 (1,15,8) 3.524515E-02 (1,15,10) -1.849511E-02
(1,15,10): (1,14,10) 3.445981E-02 (1,15,9) 1.849511E-02

 WEL PACKAGE (WEL-1) FLOW RATES   PERIOD      2   STEP       37
 ----------------------------------------------------------------------------------------
   NUMBER   CELLID                    RATE       NAME                                    
 ----------------------------------------------------------------------------------------
     1      (1,8,6)              -214.46847      WEL                                     
 ----------------------------------------------------------------------------------------




 API PACKAGE (MAR) FLOW RATES   PERIOD      2   STEP       37
 -----------------------------------------------
   NUMBER   CELLID                    RATE      
 -----------------------------------------------
     1      (1,6,5)               46.666667     
     2      (1,6,6)               46.666667     
     3      (1,6,7)               46.666667     
     4      (1,10,5)              24.822822     
     5      (1,10,6)              24.822822     
     6      (1,10,7)              24.822822     
 -----------------------------------------------



1
  HEAD IN LAYER   1 AT END OF TIME STEP  37 IN STRESS PERIOD    2
  ---------------------------------------------------------------------------

            1           2           3           4           5           6           7           8           9          10
 ........................................................................................................................
   1   8.4807E-04  1.8729E-03  4.3462E-03  8.4592E-03  1.2907E-02  1.4759E-02  1.2920E-02  8.5117E-03  4.5337E-03  2.4650E-03
   2   2.0969E-03  4.8383E-03  1.1729E-02  2.3799E-02  3.7509E-02  4.3066E-02  3.7539E-02  2.3922E-02  1.2183E-02  6.3238E-03
   3   5.4305E-03  1.3127E-02  3.3412E-02  7.1282E-02  0.1173      0.1349      0.1174      7.1585E-02  3.4560E-02  1.7027E-02
   4   1.1673E-02  2.9729E-02  8.0290E-02  0.1835      0.3241      0.3703      0.3242      0.1841      8.2690E-02  3.8215E-02
   5   1.8856E-02  5.0893E-02  0.1485      0.3782      0.7712      0.8560      0.7714      0.3792      0.1523      6.4741E-02
   6   1.8941E-02  5.3262E-02  0.1708      0.5321       1.621       1.629       1.622      0.5330      0.1746      6.7204E-02
   7   4.8628E-03  5.5944E-03 -7.3650E-03 -9.0705E-02 -0.4143      -1.545     -0.4142     -9.0290E-02 -6.0856E-03  8.6626E-03
   8  -5.3383E-03 -2.9632E-02 -0.1432     -0.5906      -2.212      -8.583      -2.212     -0.5906     -0.1438     -3.4514E-02
   9   2.7245E-03 -1.7386E-03 -3.5107E-02 -0.1839     -0.6625      -1.848     -0.6624     -0.1836     -3.4207E-02 -3.3042E-04
  10   1.5373E-02  4.0187E-02  0.1166      0.3223      0.9088      0.8158      0.9089      0.3231      0.1197      5.1356E-02
  11   1.6167E-02  4.2010E-02  0.1163      0.2765      0.5225      0.5641      0.5227      0.2773      0.1196      5.3801E-02
  12   1.0284E-02  2.5610E-02  6.7073E-02  0.1472      0.2485      0.2805      0.2486      0.1477      6.9207E-02  3.3052E-02
  13   4.8614E-03  1.1592E-02  2.8967E-02  6.0347E-02  9.6874E-02  0.1106      9.6937E-02  6.0621E-02  3.0000E-02  1.5072E-02
  14   1.8964E-03  4.3391E-03  1.0403E-02  2.0818E-02  3.2359E-02  3.7005E-02  3.2385E-02  2.0931E-02  1.0815E-02  5.6796E-03
  15   7.7231E-04  1.6972E-03  3.9133E-03  7.5581E-03  1.1447E-02  1.3059E-02  1.1459E-02  7.6062E-03  4.0843E-03  2.2356E-03

 HEAD WILL BE SAVED ON UNIT 1043 AT END OF TIME STEP   37, STRESS PERIOD    2


  VOLUME BUDGET FOR ENTIRE MODEL AT END OF TIME STEP   37, STRESS PERIOD   2
  ---------------------------------------------------------------------------------------------------

     CUMULATIVE VOLUME      L**3       RATES FOR THIS TIME STEP      L**3/T          PACKAGE NAME    
     ------------------                 ------------------------                     ----------------

           IN:                                      IN:
           ---                                      ---
              STO-SS =          18.1004                STO-SS =       2.5406E-02     STORAGE                          
              STO-SY =       44998.5812                STO-SY =          53.1046     STORAGE                          
                 WEL =           0.0000                   WEL =           0.0000     WEL-1                            
                 API =       91259.2693                   API =         214.4685     MAR                              
                 CHD =       2.8247E-08                   CHD =           0.0000     CHD_0                            

            TOTAL IN =      136275.9509              TOTAL IN =         267.5985

          OUT:                                     OUT:
          ----                                     ----
              STO-SS =          23.4241                STO-SS =       2.7244E-02     STORAGE                          
              STO-SY =       44993.2575                STO-SY =          53.1028     STORAGE                          
                 WEL =       91259.2693                   WEL =         214.4685     WEL-1                            
                 API =           0.0000                   API =           0.0000     MAR                              
                 CHD =       3.0388E-08                   CHD =           0.0000     CHD_0                            

           TOTAL OUT =      136275.9509             TOTAL OUT =         267.5985

            IN - OUT =       5.4279E-08              IN - OUT =       3.7360E-09

 PERCENT DISCREPANCY =           0.00     PERCENT DISCREPANCY =           0.00




         TIME SUMMARY AT END OF TIME STEP   37 IN STRESS PERIOD    2
                    SECONDS     MINUTES      HOURS       DAYS        YEARS
                    -----------------------------------------------------------
   TIME STEP LENGTH 8.64000E+05  14400.      240.00      10.000     2.73785E-02
 STRESS PERIOD TIME 3.19680E+07 5.32800E+05  8880.0      370.00      1.0130    
         TOTAL TIME 3.20544E+07 5.34240E+05  8904.0      371.00      1.0157    


end timestep


start timestep kper="2" kstp="38" mode="normal"

 UBDSV1 SAVING           STO-SS ON UNIT   1042 AT TIME STEP     38, STRESS PERIOD      2
 UBDSV1 SAVING           STO-SY ON UNIT   1042 AT TIME STEP     38, STRESS PERIOD      2
 UBDSV1 SAVING     FLOW-JA-FACE ON UNIT   1042 AT TIME STEP     38, STRESS PERIOD      2
 UBDSV06 SAVING       DATA-SPDIS IN MODEL GWF              PACKAGE NPF             CONNECTED TO MODEL GWF              PACKAGE NPF              ON UNIT   1042 AT TIME STEP     38, STRESS PERIOD      2
 UBDSV06 SAVING              WEL IN MODEL GWF              PACKAGE GWF             CONNECTED TO MODEL GWF              PACKAGE WEL-1            ON UNIT   1042 AT TIME STEP     38, STRESS PERIOD      2
 UBDSV06 SAVING              API IN MODEL GWF              PACKAGE GWF             CONNECTED TO MODEL GWF              PACKAGE MAR              ON UNIT   1042 AT TIME STEP     38, STRESS PERIOD      2
 UBDSV06 SAVING              CHD IN MODEL GWF              PACKAGE GWF             CONNECTED TO MODEL GWF              PACKAGE CHD_0            ON UNIT   1042 AT TIME STEP     38, STRESS PERIOD      2

    CALCULATED INTERCELL FLOW FOR PERIOD 2 STEP 38
(1,1,1): (1,1,2) 1.139291E-02 (1,2,1) 1.384830E-02
(1,1,2): (1,1,1) -1.139291E-02 (1,1,3) 2.717858E-02 (1,2,2) 3.231001E-02
(1,1,3): (1,1,2) -2.717858E-02 (1,1,4) 4.464415E-02 (1,2,3) 7.930902E-02
(1,1,4): (1,1,3) -4.464415E-02 (1,1,5) 4.783206E-02 (1,2,4) 0.163080
(1,1,5): (1,1,4) -4.783206E-02 (1,1,6) 1.990144E-02 (1,2,5) 0.259941
(1,1,6): (1,1,5) -1.990144E-02 (1,1,7) -1.974857E-02 (1,2,6) 0.298784
(1,1,7): (1,1,6) 1.974857E-02 (1,1,8) -4.736346E-02 (1,2,7) 0.260134
(1,1,8): (1,1,7) 4.736346E-02 (1,1,9) -4.308791E-02 (1,2,8) 0.163892
(1,1,9): (1,1,8) 4.308791E-02 (1,1,10) -2.259910E-02 (1,2,9) 8.230108E-02
(1,1,10): (1,1,9) 2.259910E-02 (1,2,10) 4.216252E-02
(1,2,1): (1,1,1) -1.384830E-02 (1,2,2) 2.985416E-02 (1,3,1) 3.637545E-02
(1,2,2): (1,1,2) -3.231001E-02 (1,2,1) -2.985416E-02 (1,2,3) 7.417519E-02 (1,3,2) 8.888058E-02
(1,2,3): (1,1,3) -7.930902E-02 (1,2,2) -7.417519E-02 (1,2,4) 0.128386 (1,3,3) 0.229500
(1,2,4): (1,1,4) -0.163080 (1,2,3) -0.128386 (1,2,5) 0.144583 (1,3,4) 0.498632
(1,2,5): (1,1,5) -0.259941 (1,2,4) -0.144583 (1,2,6) 5.865161E-02 (1,3,5) 0.835683
(1,2,6): (1,1,6) -0.298784 (1,2,5) -5.865161E-02 (1,2,7) -5.830628E-02 (1,3,6) 0.961901
(1,2,7): (1,1,7) -0.260134 (1,2,6) 5.830628E-02 (1,2,8) -0.143494 (1,3,7) 0.836165
(1,2,8): (1,1,8) -0.163892 (1,2,7) 0.143494 (1,2,9) -0.124647 (1,3,8) 0.500682
(1,2,9): (1,1,9) -8.230108E-02 (1,2,8) 0.124647 (1,2,10) -6.272982E-02 (1,3,9) 0.237212
(1,2,10): (1,1,10) -4.216252E-02 (1,2,9) 6.272982E-02 (1,3,10) 0.115125
(1,3,1): (1,2,1) -3.637545E-02 (1,3,2) 8.235587E-02 (1,4,1) 6.679156E-02
(1,3,2): (1,2,2) -8.888058E-02 (1,3,1) -8.235587E-02 (1,3,3) 0.214774 (1,4,2) 0.174725
(1,3,3): (1,2,3) -0.229500 (1,3,2) -0.214774 (1,3,4) 0.397250 (1,4,3) 0.488731
(1,3,4): (1,2,4) -0.498632 (1,3,3) -0.397250 (1,3,5) 0.480473 (1,4,4) 1.16904
(1,3,5): (1,2,5) -0.835683 (1,3,4) -0.480473 (1,3,6) 0.183927 (1,4,5) 2.16854
(1,3,6): (1,2,6) -0.961901 (1,3,5) -0.183927 (1,3,7) -0.183102 (1,4,6) 2.47814
(1,3,7): (1,2,7) -0.836165 (1,3,6) 0.183102 (1,3,8) -0.477812 (1,4,7) 2.16938
(1,3,8): (1,2,8) -0.500682 (1,3,7) 0.477812 (1,3,9) -0.387825 (1,4,8) 1.17261
(1,3,9): (1,2,9) -0.237212 (1,3,8) 0.387825 (1,3,10) -0.184753 (1,4,9) 0.502504
(1,3,10): (1,2,10) -0.115125 (1,3,9) 0.184753 (1,4,10) 0.223786
(1,4,1): (1,3,1) -6.679156E-02 (1,4,2) 0.190306 (1,5,1) 7.488250E-02
(1,4,2): (1,3,2) -0.174725 (1,4,1) -0.190306 (1,4,3) 0.528904 (1,5,2) 0.217650
(1,4,3): (1,3,3) -0.488731 (1,4,2) -0.528904 (1,4,4) 1.07696 (1,5,3) 0.700033
(1,4,4): (1,3,4) -1.16904 (1,4,3) -1.07696 (1,4,5) 1.47357 (1,5,4) 2.02951
(1,4,5): (1,3,5) -2.16854 (1,4,4) -1.47357 (1,4,6) 0.487986 (1,5,5) 4.81986
(1,4,6): (1,3,6) -2.47814 (1,4,5) -0.487986 (1,4,7) -0.486331 (1,5,6) 5.27596
(1,4,7): (1,3,7) -2.16938 (1,4,6) 0.486331 (1,4,8) -1.46815 (1,5,7) 4.82078
(1,4,8): (1,3,8) -1.17261 (1,4,7) 1.46815 (1,4,9) -1.05719 (1,5,8) 2.03322
(1,4,9): (1,3,9) -0.502504 (1,4,8) 1.05719 (1,4,10) -0.463365 (1,5,9) 0.714796
(1,4,10): (1,3,10) -0.223786 (1,4,9) 0.463365 (1,5,10) 0.273800
(1,5,1): (1,4,1) -7.488250E-02 (1,5,2) 0.333237 (1,6,1) -1.745986E-03
(1,5,2): (1,4,2) -0.217650 (1,5,1) -0.333237 (1,5,3) 1.01274 (1,6,2) 1.688171E-02
(1,5,3): (1,4,3) -0.700033 (1,5,2) -1.01274 (1,5,4) 2.41108 (1,6,3) 0.208780
(1,5,4): (1,4,4) -2.02951 (1,5,3) -2.41108 (1,5,5) 4.25064 (1,6,4) 1.58063
(1,5,5): (1,4,5) -4.81986 (1,5,4) -4.25064 (1,5,6) 0.928692 (1,6,5) 9.81569
(1,5,6): (1,4,6) -5.27596 (1,5,5) -0.928692 (1,5,7) -0.926148 (1,6,6) 8.92167
(1,5,7): (1,4,7) -4.82078 (1,5,6) 0.926148 (1,5,8) -4.24220 (1,6,7) 9.81576
(1,5,8): (1,4,8) -2.03322 (1,5,7) 4.24220 (1,5,9) -2.37980 (1,6,8) 1.58041
(1,5,9): (1,4,9) -0.714796 (1,5,8) 2.37980 (1,5,10) -0.905171 (1,6,9) 0.207921
(1,5,10): (1,4,10) -0.273800 (1,5,9) 0.905171 (1,6,10) 1.588335E-02
(1,6,1): (1,5,1) 1.745986E-03 (1,6,2) 0.351926 (1,7,1) -0.149011
(1,6,2): (1,5,2) -1.688171E-02 (1,6,1) -0.351926 (1,6,3) 1.20649 (1,7,2) -0.497086
(1,6,3): (1,5,3) -0.208780 (1,6,2) -1.20649 (1,6,4) 3.81035 (1,7,3) -1.85325
(1,6,4): (1,5,4) -1.58063 (1,6,3) -3.81035 (1,6,5) 12.6553 (1,7,4) -6.63334
(1,6,5): (1,5,5) -9.81569 (1,6,4) -12.6553 (1,6,6) 9.344236E-02 (1,7,5) -23.7578
(1,6,6): (1,5,6) -8.92167 (1,6,5) -9.344236E-02 (1,6,7) -9.084144E-02 (1,7,6) -36.9988
(1,6,7): (1,5,7) -9.81576 (1,6,6) 9.084144E-02 (1,6,8) -12.6467 (1,7,7) -23.7594
(1,6,8): (1,5,8) -1.58041 (1,6,7) 12.6467 (1,6,9) -3.77934 (1,7,8) -6.63961
(1,6,9): (1,5,9) -0.207921 (1,6,8) 3.77934 (1,6,10) -1.09886 (1,7,9) -1.88048
(1,6,10): (1,5,10) -1.588335E-02 (1,6,9) 1.09886 (1,7,10) -0.612883
(1,7,1): (1,6,1) 0.149011 (1,7,2) 4.350714E-03 (1,8,1) -0.107442
(1,7,2): (1,6,2) 0.497086 (1,7,1) -4.350714E-03 (1,7,3) -0.141439 (1,8,2) -0.364761
(1,7,3): (1,6,3) 1.85325 (1,7,2) 0.141439 (1,7,4) -0.857193 (1,8,3) -1.38643
(1,7,4): (1,6,4) 6.63334 (1,7,3) 0.857193 (1,7,5) -3.22431 (1,8,4) -5.00593
(1,7,5): (1,6,5) 23.7578 (1,7,4) 3.22431 (1,7,6) -10.8148 (1,8,5) -17.2903
(1,7,6): (1,6,6) 36.9988 (1,7,5) 10.8148 (1,7,7) 10.8161 (1,8,6) -59.4834
(1,7,7): (1,6,7) 23.7594 (1,7,6) -10.8161 (1,7,8) 3.22770 (1,8,7) -17.2913
(1,7,8): (1,6,8) 6.63961 (1,7,7) -3.22770 (1,7,9) 0.866398 (1,8,8) -5.01023
(1,7,9): (1,6,9) 1.88048 (1,7,8) -0.866398 (1,7,10) 0.159478 (1,8,9) -1.40568
(1,7,10): (1,6,10) 0.612883 (1,7,9) -0.159478 (1,8,10) -0.448254
(1,8,1): (1,7,1) 0.107442 (1,8,2) -0.252681 (1,9,1) 8.358851E-02
(1,8,2): (1,7,2) 0.364761 (1,8,1) 0.252681 (1,8,3) -1.16082 (1,9,2) 0.283909
(1,8,3): (1,7,3) 1.38643 (1,8,2) 1.16082 (1,8,4) -4.45728 (1,9,3) 1.08304
(1,8,4): (1,7,4) 5.00593 (1,8,3) 4.45728 (1,8,5) -15.2750 (1,9,4) 3.98154
(1,8,5): (1,7,5) 17.2903 (1,8,4) 15.2750 (1,8,6) -49.4703 (1,9,5) 14.3926
(1,8,6): (1,7,6) 59.4834 (1,8,5) 49.4703 (1,8,7) 49.4709 (1,9,6) 54.6592
(1,8,7): (1,7,7) 17.2913 (1,8,6) -49.4709 (1,8,8) 15.2750 (1,9,7) 14.3934
(1,8,8): (1,7,8) 5.01023 (1,8,7) -15.2750 (1,8,9) 4.45124 (1,9,8) 3.98478
(1,8,9): (1,7,9) 1.40568 (1,8,8) -4.45124 (1,8,10) 1.11414 (1,9,9) 1.09789
(1,8,10): (1,7,10) 0.448254 (1,8,9) -1.11414 (1,9,10) 0.348808
(1,9,1): (1,8,1) -8.358851E-02 (1,9,2) -5.242361E-02 (1,10,1) 0.133145
(1,9,2): (1,8,2) -0.283909 (1,9,1) 5.242361E-02 (1,9,3) -0.361074 (1,10,2) 0.434036
(1,9,3): (1,8,3) -1.08304 (1,9,2) 0.361074 (1,9,4) -1.54499 (1,10,3) 1.55846
(1,9,4): (1,8,4) -3.98154 (1,9,3) 1.54499 (1,9,5) -4.77212 (1,10,4) 5.24819
(1,9,5): (1,8,5) -14.3926 (1,9,4) 4.77212 (1,9,6) -11.0566 (1,10,5) 17.0965
(1,9,6): (1,8,6) -54.6592 (1,9,5) 11.0566 (1,9,7) 11.0577 (1,10,6) 28.7092
(1,9,7): (1,8,7) -14.3934 (1,9,6) -11.0577 (1,9,8) 4.77478 (1,10,7) 17.0977
(1,9,8): (1,8,8) -3.98478 (1,9,7) -4.77478 (1,9,9) 1.55090 (1,10,8) 5.25370
(1,9,9): (1,8,9) -1.09789 (1,9,8) -1.55090 (1,9,10) 0.364931 (1,10,9) 1.58284
(1,9,10): (1,8,10) -0.348808 (1,9,9) -0.364931 (1,10,10) 0.537110
(1,10,1): (1,9,1) -0.133145 (1,10,2) 0.247940 (1,11,1) 1.130026E-02
(1,10,2): (1,9,2) -0.434036 (1,10,1) -0.247940 (1,10,3) 0.755865 (1,11,2) 2.808478E-02
(1,10,3): (1,9,3) -1.55846 (1,10,2) -0.755865 (1,10,4) 2.05912 (1,11,3) 2.703393E-02
(1,10,4): (1,9,4) -5.24819 (1,10,3) -2.05912 (1,10,5) 6.25662 (1,11,4) -0.397066
(1,10,5): (1,9,5) -17.0965 (1,10,4) -6.25662 (1,10,6) -1.04996 (1,11,5) -4.04519
(1,10,6): (1,9,6) -28.7092 (1,10,5) 1.04996 (1,10,7) 1.05209 (1,11,6) -2.53783
(1,10,7): (1,9,7) -17.0977 (1,10,6) -1.05209 (1,10,8) -6.24959 (1,11,7) -4.04513
(1,10,8): (1,9,8) -5.25370 (1,10,7) 6.24959 (1,10,9) -2.03407 (1,11,8) -0.396568
(1,10,9): (1,9,9) -1.58284 (1,10,8) 2.03407 (1,10,10) -0.672865 (1,11,9) 2.929049E-02
(1,10,10): (1,9,10) -0.537110 (1,10,9) 0.672865 (1,11,10) 3.693607E-02
(1,11,1): (1,10,1) -1.130026E-02 (1,11,2) 0.264764 (1,12,1) -6.044363E-02
(1,11,2): (1,10,2) -2.808478E-02 (1,11,1) -0.264764 (1,11,3) 0.754805 (1,12,2) -0.165198
(1,11,3): (1,10,3) -2.703393E-02 (1,11,2) -0.754805 (1,11,4) 1.62840 (1,12,3) -0.491346
(1,11,4): (1,10,4) 0.397066 (1,11,3) -1.62840 (1,11,5) 2.54088 (1,12,4) -1.29737
(1,11,5): (1,10,5) 4.04519 (1,11,4) -2.54088 (1,11,6) 0.421491 (1,12,5) -2.80687
(1,11,6): (1,10,6) 2.53783 (1,11,5) -0.421491 (1,11,7) -0.419318 (1,12,6) -2.90287
(1,11,7): (1,10,7) 4.04513 (1,11,6) 0.419318 (1,11,8) -2.53361 (1,12,7) -2.80760
(1,11,8): (1,10,8) 0.396568 (1,11,7) 2.53361 (1,11,9) -1.60166 (1,12,8) -1.30045
(1,11,9): (1,10,9) -2.929049E-02 (1,11,8) 1.60166 (1,11,10) -0.665171 (1,12,9) -0.503519
(1,11,10): (1,10,10) -3.693607E-02 (1,11,9) 0.665171 (1,12,10) -0.209923
(1,12,1): (1,11,1) 6.044363E-02 (1,12,2) 0.159906 (1,13,1) -5.758185E-02
(1,12,2): (1,11,2) 0.165198 (1,12,1) -0.159906 (1,12,3) 0.427821 (1,13,2) -0.145951
(1,12,3): (1,11,3) 0.491346 (1,12,2) -0.427821 (1,12,4) 0.819875 (1,13,3) -0.391376
(1,12,4): (1,11,4) 1.29737 (1,12,3) -0.819875 (1,12,5) 1.03493 (1,13,4) -0.886402
(1,12,5): (1,11,5) 2.80687 (1,12,4) -1.03493 (1,12,6) 0.327390 (1,13,5) -1.54936
(1,12,6): (1,11,6) 2.90287 (1,12,5) -0.327390 (1,12,7) -0.325931 (1,13,6) -1.73769
(1,12,7): (1,11,7) 2.80760 (1,12,6) 0.325931 (1,12,8) -1.03012 (1,13,7) -1.55009
(1,12,8): (1,11,8) 1.30045 (1,12,7) 1.03012 (1,12,9) -0.802478 (1,13,8) -0.889522
(1,12,9): (1,11,9) 0.503519 (1,12,8) 0.802478 (1,12,10) -0.371113 (1,13,9) -0.403371
(1,12,10): (1,11,10) 0.209923 (1,12,9) 0.371113 (1,13,10) -0.187938
(1,13,1): (1,12,1) 5.758185E-02 (1,13,2) 7.152473E-02 (1,14,1) -3.219866E-02
(1,13,2): (1,12,2) 0.145951 (1,13,1) -7.152473E-02 (1,13,3) 0.182307 (1,14,2) -7.724928E-02
(1,13,3): (1,12,3) 0.391376 (1,13,2) -0.182307 (1,13,4) 0.325167 (1,14,3) -0.194686
(1,13,4): (1,12,4) 0.886402 (1,13,3) -0.325167 (1,13,5) 0.375173 (1,14,4) -0.410120
(1,13,5): (1,12,5) 1.54936 (1,13,4) -0.375173 (1,13,6) 0.141514 (1,14,5) -0.665514
(1,13,6): (1,12,6) 1.73769 (1,13,5) -0.141514 (1,13,7) -0.140773 (1,14,6) -0.759063
(1,13,7): (1,12,7) 1.55009 (1,13,6) 0.140773 (1,13,8) -0.372780 (1,14,7) -0.665943
(1,13,8): (1,12,8) 0.889522 (1,13,7) 0.372780 (1,13,9) -0.316735 (1,14,8) -0.411952
(1,13,9): (1,12,9) 0.403371 (1,13,8) 0.316735 (1,13,10) -0.155749 (1,14,9) -0.201554
(1,13,10): (1,12,10) 0.187938 (1,13,9) 0.155749 (1,14,10) -0.100375
(1,14,1): (1,13,1) 3.219866E-02 (1,14,2) 2.647669E-02 (1,15,1) -1.242165E-02
(1,14,2): (1,13,2) 7.724928E-02 (1,14,1) -2.647669E-02 (1,14,3) 6.488481E-02 (1,15,2) -2.864946E-02
(1,14,3): (1,13,3) 0.194686 (1,14,2) -6.488481E-02 (1,14,4) 0.109913 (1,15,3) -6.927899E-02
(1,14,4): (1,13,4) 0.410120 (1,14,3) -0.109913 (1,14,5) 0.120502 (1,15,4) -0.139850
(1,14,5): (1,13,5) 0.665514 (1,14,4) -0.120502 (1,14,6) 4.852348E-02 (1,15,5) -0.218866
(1,14,6): (1,13,6) 0.759063 (1,14,5) -4.852348E-02 (1,14,7) -4.821007E-02 (1,15,6) -0.250235
(1,14,7): (1,13,7) 0.665943 (1,14,6) 4.821007E-02 (1,14,8) -0.119514 (1,15,7) -0.219040
(1,14,8): (1,13,8) 0.411952 (1,14,7) 0.119514 (1,14,9) -0.106535 (1,15,8) -0.140585
(1,14,9): (1,13,9) 0.201554 (1,14,8) 0.106535 (1,14,10) -5.461523E-02 (1,15,9) -7.197343E-02
(1,14,10): (1,13,10) 0.100375 (1,14,9) 5.461523E-02 (1,15,10) -3.746028E-02
(1,15,1): (1,14,1) 1.242165E-02 (1,15,2) 1.024922E-02
(1,15,2): (1,14,2) 2.864946E-02 (1,15,1) -1.024922E-02 (1,15,3) 2.425706E-02
(1,15,3): (1,14,3) 6.927899E-02 (1,15,2) -2.425706E-02 (1,15,4) 3.936301E-02
(1,15,4): (1,14,4) 0.139850 (1,15,3) -3.936301E-02 (1,15,5) 4.156376E-02
(1,15,5): (1,14,5) 0.218866 (1,15,4) -4.156376E-02 (1,15,6) 1.721651E-02
(1,15,6): (1,14,6) 0.250235 (1,15,5) -1.721651E-02 (1,15,7) -1.707690E-02
(1,15,7): (1,14,7) 0.219040 (1,15,6) 1.707690E-02 (1,15,8) -4.113615E-02
(1,15,8): (1,14,8) 0.140585 (1,15,7) 4.113615E-02 (1,15,9) -3.794667E-02
(1,15,9): (1,14,9) 7.197343E-02 (1,15,8) 3.794667E-02 (1,15,10) -2.010805E-02
(1,15,10): (1,14,10) 3.746028E-02 (1,15,9) 2.010805E-02

 WEL PACKAGE (WEL-1) FLOW RATES   PERIOD      2   STEP       38
 ----------------------------------------------------------------------------------------
   NUMBER   CELLID                    RATE       NAME                                    
 ----------------------------------------------------------------------------------------
     1      (1,8,6)              -213.83703      WEL                                     
 ----------------------------------------------------------------------------------------




 API PACKAGE (MAR) FLOW RATES   PERIOD      2   STEP       38
 -----------------------------------------------
   NUMBER   CELLID                    RATE      
 -----------------------------------------------
     1      (1,6,5)               46.666667     
     2      (1,6,6)               46.666667     
     3      (1,6,7)               46.666667     
     4      (1,10,5)              24.612344     
     5      (1,10,6)              24.612344     
     6      (1,10,7)              24.612344     
 -----------------------------------------------



1
  HEAD IN LAYER   1 AT END OF TIME STEP  38 IN STRESS PERIOD    2
  ---------------------------------------------------------------------------

            1           2           3           4           5           6           7           8           9          10
 ........................................................................................................................
   1   9.7421E-04  2.1133E-03  4.8298E-03  9.2901E-03  1.4067E-02  1.6054E-02  1.4082E-02  9.3521E-03  5.0474E-03  2.7886E-03
   2   2.3587E-03  5.3425E-03  1.2751E-02  2.5556E-02  3.9957E-02  4.5796E-02  3.9992E-02  2.5699E-02  1.3267E-02  7.0019E-03
   3   5.9941E-03  1.4218E-02  3.5619E-02  7.5048E-02  0.1225      0.1407      0.1226      7.5393E-02  3.6901E-02  1.8493E-02
   4   1.2665E-02  3.1635E-02  8.4085E-02  0.1898      0.3324      0.3794      0.3326      0.1905      8.6719E-02  4.0781E-02
   5   2.0138E-02  5.3285E-02  0.1530      0.3852      0.7795      0.8650      0.7798      0.3862      0.1571      6.7976E-02
   6   1.9964E-02  5.4964E-02  0.1736      0.5352       1.624       1.632       1.624      0.5362      0.1775      6.9553E-02
   7   5.0923E-03  5.5272E-03 -8.6090E-03 -9.4402E-02 -0.4199      -1.549     -0.4198     -9.3948E-02 -7.2456E-03  8.6884E-03
   8  -5.6464E-03 -3.0929E-02 -0.1474     -0.5998      -2.225      -8.587      -2.225     -0.5997     -0.1479     -3.6098E-02
   9   2.7101E-03 -2.5308E-03 -3.8647E-02 -0.1937     -0.6804      -1.867     -0.6803     -0.1934     -3.7711E-02 -1.2131E-03
  10   1.6003E-02  4.0697E-02  0.1154      0.3150      0.8896      0.7932      0.8898      0.3159      0.1187      5.2219E-02
  11   1.7131E-02  4.3493E-02  0.1181      0.2766      0.5181      0.5580      0.5183      0.2775      0.1216      5.5892E-02
  12   1.1097E-02  2.7045E-02  6.9532E-02  0.1503      0.2513      0.2831      0.2514      0.1509      7.1863E-02  3.5016E-02
  13   5.3456E-03  1.2489E-02  3.0664E-02  6.2977E-02  0.1001      0.1141      0.1002      6.3288E-02  3.1814E-02  1.6288E-02
  14   2.1275E-03  4.7739E-03  1.1255E-02  2.2222E-02  3.4231E-02  3.9065E-02  3.4262E-02  2.2352E-02  1.1722E-02  6.2670E-03
  15   8.8560E-04  1.9103E-03  4.3350E-03  8.2680E-03  1.2419E-02  1.4138E-02  1.2433E-02  8.3247E-03  4.5332E-03  2.5233E-03

 HEAD WILL BE SAVED ON UNIT 1043 AT END OF TIME STEP   38, STRESS PERIOD    2


  VOLUME BUDGET FOR ENTIRE MODEL AT END OF TIME STEP   38, STRESS PERIOD   2
  ---------------------------------------------------------------------------------------------------

     CUMULATIVE VOLUME      L**3       RATES FOR THIS TIME STEP      L**3/T          PACKAGE NAME    
     ------------------                 ------------------------                     ----------------

           IN:                                      IN:
           ---                                      ---
              STO-SS =          18.3489                STO-SS =       2.4846E-02     STORAGE                          
              STO-SY =       45517.5621                STO-SY =          51.8981     STORAGE                          
                 WEL =           0.0000                   WEL =           0.0000     WEL-1                            
                 API =       93397.6396                   API =         213.8370     MAR                              
                 CHD =       2.8247E-08                   CHD =           0.0000     CHD_0                            

            TOTAL IN =      138933.5506              TOTAL IN =         265.7600

          OUT:                                     OUT:
          ----                                     ----
              STO-SS =          23.6903                STO-SS =       2.6621E-02     STORAGE                          
              STO-SY =       45512.2207                STO-SY =          51.8963     STORAGE                          
                 WEL =       93397.6396                   WEL =         213.8370     WEL-1                            
                 API =           0.0000                   API =           0.0000     MAR                              
                 CHD =       3.0388E-08                   CHD =           0.0000     CHD_0                            

           TOTAL OUT =      138933.5506             TOTAL OUT =         265.7600

            IN - OUT =       9.0484E-08              IN - OUT =       3.6201E-09

 PERCENT DISCREPANCY =           0.00     PERCENT DISCREPANCY =           0.00




         TIME SUMMARY AT END OF TIME STEP   38 IN STRESS PERIOD    2
                    SECONDS     MINUTES      HOURS       DAYS        YEARS
                    -----------------------------------------------------------
   TIME STEP LENGTH 8.64000E+05  14400.      240.00      10.000     2.73785E-02
 STRESS PERIOD TIME 3.28320E+07 5.47200E+05  9120.0      380.00      1.0404    
         TOTAL TIME 3.29184E+07 5.48640E+05  9144.0      381.00      1.0431    


end timestep


start timestep kper="2" kstp="39" mode="normal"

 UBDSV1 SAVING           STO-SS ON UNIT   1042 AT TIME STEP     39, STRESS PERIOD      2
 UBDSV1 SAVING           STO-SY ON UNIT   1042 AT TIME STEP     39, STRESS PERIOD      2
 UBDSV1 SAVING     FLOW-JA-FACE ON UNIT   1042 AT TIME STEP     39, STRESS PERIOD      2
 UBDSV06 SAVING       DATA-SPDIS IN MODEL GWF              PACKAGE NPF             CONNECTED TO MODEL GWF              PACKAGE NPF              ON UNIT   1042 AT TIME STEP     39, STRESS PERIOD      2
 UBDSV06 SAVING              WEL IN MODEL GWF              PACKAGE GWF             CONNECTED TO MODEL GWF              PACKAGE WEL-1            ON UNIT   1042 AT TIME STEP     39, STRESS PERIOD      2
 UBDSV06 SAVING              API IN MODEL GWF              PACKAGE GWF             CONNECTED TO MODEL GWF              PACKAGE MAR              ON UNIT   1042 AT TIME STEP     39, STRESS PERIOD      2
 UBDSV06 SAVING              CHD IN MODEL GWF              PACKAGE GWF             CONNECTED TO MODEL GWF              PACKAGE CHD_0            ON UNIT   1042 AT TIME STEP     39, STRESS PERIOD      2

    CALCULATED INTERCELL FLOW FOR PERIOD 2 STEP 39
(1,1,1): (1,1,2) 1.260730E-02 (1,2,1) 1.528396E-02
(1,1,2): (1,1,1) -1.260730E-02 (1,1,3) 2.973727E-02 (1,2,2) 3.504969E-02
(1,1,3): (1,1,2) -2.973727E-02 (1,1,4) 4.825477E-02 (1,2,3) 8.480633E-02
(1,1,4): (1,1,3) -4.825477E-02 (1,1,5) 5.121959E-02 (1,2,4) 0.172456
(1,1,5): (1,1,4) -5.121959E-02 (1,1,6) 2.129638E-02 (1,2,5) 0.272909
(1,1,6): (1,1,5) -2.129638E-02 (1,1,7) -2.111409E-02 (1,2,6) 0.313207
(1,1,7): (1,1,6) 2.111409E-02 (1,1,8) -5.067230E-02 (1,2,7) 0.273132
(1,1,8): (1,1,7) 5.067230E-02 (1,1,9) -4.647081E-02 (1,2,8) 0.173378
(1,1,9): (1,1,8) 4.647081E-02 (1,1,10) -2.458034E-02 (1,2,9) 8.814259E-02
(1,1,10): (1,1,9) 2.458034E-02 (1,2,10) 4.585492E-02
(1,2,1): (1,1,1) -1.528396E-02 (1,2,2) 3.237250E-02 (1,3,1) 3.951490E-02
(1,2,2): (1,1,2) -3.504969E-02 (1,2,1) -3.237250E-02 (1,2,3) 7.949128E-02 (1,3,2) 9.486498E-02
(1,2,3): (1,1,3) -8.480633E-02 (1,2,2) -7.949128E-02 (1,2,4) 0.135873 (1,3,3) 0.241430
(1,2,4): (1,1,4) -0.172456 (1,2,3) -0.135873 (1,2,5) 0.151552 (1,3,4) 0.518725
(1,2,5): (1,1,5) -0.272909 (1,2,4) -0.151552 (1,2,6) 6.149413E-02 (1,3,5) 0.863062
(1,2,6): (1,1,6) -0.313207 (1,2,5) -6.149413E-02 (1,2,7) -6.109001E-02 (1,3,6) 0.992166
(1,2,7): (1,1,7) -0.273132 (1,2,6) 6.109001E-02 (1,2,8) -0.150305 (1,3,7) 0.863609
(1,2,8): (1,1,8) -0.173378 (1,2,7) 0.150305 (1,2,9) -0.131671 (1,3,8) 0.521016
(1,2,9): (1,1,9) -8.814259E-02 (1,2,8) 0.131671 (1,2,10) -6.685904E-02 (1,3,9) 0.249899
(1,2,10): (1,1,10) -4.585492E-02 (1,2,9) 6.685904E-02 (1,3,10) 0.123198
(1,3,1): (1,2,1) -3.951490E-02 (1,3,2) 8.771864E-02 (1,4,1) 7.113549E-02
(1,3,2): (1,2,2) -9.486498E-02 (1,3,1) -8.771864E-02 (1,3,3) 0.226034 (1,4,2) 0.182848
(1,3,3): (1,2,3) -0.241430 (1,3,2) -0.226034 (1,3,4) 0.412880 (1,4,3) 0.504389
(1,3,4): (1,2,4) -0.518725 (1,3,3) -0.412880 (1,3,5) 0.494661 (1,4,4) 1.19409
(1,3,5): (1,2,5) -0.863062 (1,3,4) -0.494661 (1,3,6) 0.189605 (1,4,5) 2.20075
(1,3,6): (1,2,6) -0.992166 (1,3,5) -0.189605 (1,3,7) -0.188656 (1,4,6) 2.51299
(1,3,7): (1,2,7) -0.863609 (1,3,6) 0.188656 (1,3,8) -0.491665 (1,4,7) 2.20168
(1,3,8): (1,2,8) -0.521016 (1,3,7) 0.491665 (1,3,9) -0.402473 (1,4,8) 1.19800
(1,3,9): (1,2,9) -0.249899 (1,3,8) 0.402473 (1,3,10) -0.193488 (1,4,9) 0.519221
(1,3,10): (1,2,10) -0.123198 (1,3,9) 0.193488 (1,4,10) 0.234789
(1,4,1): (1,3,1) -7.113549E-02 (1,4,2) 0.199450 (1,5,1) 7.769128E-02
(1,4,2): (1,3,2) -0.182848 (1,4,1) -0.199450 (1,4,3) 0.547711 (1,5,2) 0.222204
(1,4,3): (1,3,3) -0.504389 (1,4,2) -0.547711 (1,4,4) 1.10198 (1,5,3) 0.706870
(1,4,4): (1,3,4) -1.19409 (1,4,3) -1.10198 (1,4,5) 1.49478 (1,5,4) 2.03614
(1,4,5): (1,3,5) -2.20075 (1,4,4) -1.49478 (1,4,6) 0.496206 (1,5,5) 4.82217
(1,4,6): (1,3,6) -2.51299 (1,4,5) -0.496206 (1,4,7) -0.494333 (1,5,6) 5.27672
(1,4,7): (1,3,7) -2.20168 (1,4,6) 0.494333 (1,4,8) -1.48877 (1,5,7) 4.82316
(1,4,8): (1,3,8) -1.19800 (1,4,7) 1.48877 (1,4,9) -1.08049 (1,5,8) 2.04011
(1,4,9): (1,3,9) -0.519221 (1,4,8) 1.08049 (1,4,10) -0.477805 (1,5,9) 0.722351
(1,4,10): (1,3,10) -0.234789 (1,4,9) 0.477805 (1,5,10) 0.280135
(1,5,1): (1,4,1) -7.769128E-02 (1,5,2) 0.344137 (1,6,1) -4.551518E-03
(1,5,2): (1,4,2) -0.222204 (1,5,1) -0.344137 (1,5,3) 1.03391 (1,6,2) 9.652631E-03
(1,5,3): (1,4,3) -0.706870 (1,5,2) -1.03391 (1,5,4) 2.43611 (1,6,3) 0.190074
(1,5,4): (1,4,4) -2.03614 (1,5,3) -2.43611 (1,5,5) 4.26791 (1,6,4) 1.54181
(1,5,5): (1,4,5) -4.82217 (1,5,4) -4.26791 (1,5,6) 0.935472 (1,6,5) 9.75407
(1,5,6): (1,4,6) -5.27672 (1,5,5) -0.935472 (1,5,7) -0.932631 (1,6,6) 8.85560
(1,5,7): (1,4,7) -4.82316 (1,5,6) 0.932631 (1,5,8) -4.25870 (1,6,7) 9.75411
(1,5,8): (1,4,8) -2.04011 (1,5,7) 4.25870 (1,5,9) -2.40262 (1,6,8) 1.54144
(1,5,9): (1,4,9) -0.722351 (1,5,8) 2.40262 (1,5,10) -0.920866 (1,6,9) 0.188630
(1,5,10): (1,4,10) -0.280135 (1,5,9) 0.920866 (1,6,10) 6.550026E-03
(1,6,1): (1,5,1) 4.551518E-03 (1,6,2) 0.358390 (1,7,1) -0.157061
(1,6,2): (1,5,2) -9.652631E-03 (1,6,1) -0.358390 (1,6,3) 1.21611 (1,7,2) -0.514750
(1,6,3): (1,5,3) -0.190074 (1,6,2) -1.21611 (1,6,4) 3.81538 (1,7,3) -1.89265
(1,6,4): (1,5,4) -1.54181 (1,6,3) -3.81538 (1,6,5) 12.6529 (1,7,4) -6.70385
(1,6,5): (1,5,5) -9.75407 (1,6,4) -12.6529 (1,6,6) 9.559095E-02 (1,7,5) -23.8530
(1,6,6): (1,5,6) -8.85560 (1,6,5) -9.559095E-02 (1,6,7) -9.271654E-02 (1,7,6) -37.0839
(1,6,7): (1,5,7) -9.75411 (1,6,6) 9.271654E-02 (1,6,8) -12.6435 (1,7,7) -23.8548
(1,6,8): (1,5,8) -1.54144 (1,6,7) 12.6435 (1,6,9) -3.78259 (1,7,8) -6.71066
(1,6,9): (1,5,9) -0.188630 (1,6,8) 3.78259 (1,6,10) -1.10456 (1,7,9) -1.92169
(1,6,10): (1,5,10) -6.550026E-03 (1,6,9) 1.10456 (1,7,10) -0.636225
(1,7,1): (1,6,1) 0.157061 (1,7,2) 1.253287E-03 (1,8,1) -0.112879
(1,7,2): (1,6,2) 0.514750 (1,7,1) -1.253287E-03 (1,7,3) -0.153058 (1,8,2) -0.376949
(1,7,3): (1,6,3) 1.89265 (1,7,2) 0.153058 (1,7,4) -0.880199 (1,8,3) -1.41439
(1,7,4): (1,6,4) 6.70385 (1,7,3) 0.880199 (1,7,5) -3.23977 (1,8,4) -5.05612
(1,7,5): (1,6,5) 23.8530 (1,7,4) 3.23977 (1,7,6) -10.7959 (1,8,5) -17.3446
(1,7,6): (1,6,6) 37.0839 (1,7,5) 10.7959 (1,7,7) 10.7974 (1,8,6) -59.4534
(1,7,7): (1,6,7) 23.8548 (1,7,6) -10.7974 (1,7,8) 3.24344 (1,8,7) -17.3458
(1,7,8): (1,6,8) 6.71066 (1,7,7) -3.24344 (1,7,9) 0.889856 (1,8,8) -5.06077
(1,7,9): (1,6,9) 1.92169 (1,7,8) -0.889856 (1,7,10) 0.171119 (1,8,9) -1.43485
(1,7,10): (1,6,10) 0.636225 (1,7,9) -0.171119 (1,8,10) -0.464273
(1,8,1): (1,7,1) 0.112879 (1,8,2) -0.262515 (1,9,1) 8.638355E-02
(1,8,2): (1,7,2) 0.376949 (1,8,1) 0.262515 (1,8,3) -1.18818 (1,9,2) 0.288408
(1,8,3): (1,7,3) 1.41439 (1,8,2) 1.18818 (1,8,4) -4.50219 (1,9,3) 1.08714
(1,8,4): (1,7,4) 5.05612 (1,8,3) 4.50219 (1,8,5) -15.2897 (1,9,4) 3.96902
(1,8,5): (1,7,5) 17.3446 (1,8,4) 15.2897 (1,8,6) -49.3299 (1,9,5) 14.3153
(1,8,6): (1,7,6) 59.4534 (1,8,5) 49.3299 (1,8,7) 49.3306 (1,9,6) 54.4134
(1,8,7): (1,7,7) 17.3458 (1,8,6) -49.3306 (1,8,8) 15.2898 (1,9,7) 14.3161
(1,8,8): (1,7,8) 5.06077 (1,8,7) -15.2898 (1,8,9) 4.49573 (1,9,8) 3.97247
(1,8,9): (1,7,9) 1.43485 (1,8,8) -4.49573 (1,8,10) 1.13885 (1,9,9) 1.10267
(1,8,10): (1,7,10) 0.464273 (1,8,9) -1.13885 (1,9,10) 0.355145
(1,9,1): (1,8,1) -8.638355E-02 (1,9,2) -6.054239E-02 (1,10,1) 0.139594
(1,9,2): (1,8,2) -0.288408 (1,9,1) 6.054239E-02 (1,9,3) -0.388640 (1,10,2) 0.446757
(1,9,3): (1,8,3) -1.08714 (1,9,2) 0.388640 (1,9,4) -1.60492 (1,10,3) 1.58126
(1,9,4): (1,8,4) -3.96902 (1,9,3) 1.60492 (1,9,5) -4.84231 (1,10,4) 5.26876
(1,9,5): (1,8,5) -14.3153 (1,9,4) 4.84231 (1,9,6) -11.0471 (1,10,5) 17.0528
(1,9,6): (1,8,6) -54.4134 (1,9,5) 11.0471 (1,9,7) 11.0483 (1,10,6) 28.6137
(1,9,7): (1,8,7) -14.3161 (1,9,6) -11.0483 (1,9,8) 4.84515 (1,10,7) 17.0541
(1,9,8): (1,8,8) -3.97247 (1,9,7) -4.84515 (1,9,9) 1.61089 (1,10,8) 5.27470
(1,9,9): (1,8,9) -1.10267 (1,9,8) -1.61089 (1,9,10) 0.391051 (1,10,9) 1.60712
(1,9,10): (1,8,10) -0.355145 (1,9,9) -0.391051 (1,10,10) 0.554277
(1,10,1): (1,9,1) -0.139594 (1,10,2) 0.246047 (1,11,1) 1.487675E-02
(1,10,2): (1,9,2) -0.446757 (1,10,1) -0.246047 (1,10,3) 0.738053 (1,11,2) 3.814706E-02
(1,10,3): (1,9,3) -1.58126 (1,10,2) -0.738053 (1,10,4) 1.99590 (1,11,3) 5.638460E-02
(1,10,4): (1,9,4) -5.26876 (1,10,3) -1.99590 (1,10,5) 6.12275 (1,11,4) -0.324163
(1,10,5): (1,9,5) -17.0528 (1,10,4) -6.12275 (1,10,6) -1.08408 (1,11,5) -3.88621
(1,10,6): (1,9,6) -28.6137 (1,10,5) 1.08408 (1,10,7) 1.08642 (1,11,6) -2.36367
(1,10,7): (1,9,7) -17.0541 (1,10,6) -1.08642 (1,10,8) -6.11523 (1,11,7) -3.88612
(1,10,8): (1,9,8) -5.27470 (1,10,7) 6.11523 (1,10,9) -1.96974 (1,11,8) -0.323495
(1,10,9): (1,9,9) -1.60712 (1,10,8) 1.96974 (1,10,10) -0.653546 (1,11,9) 5.934916E-02
(1,10,10): (1,9,10) -0.554277 (1,10,9) 0.653546 (1,11,10) 4.971333E-02
(1,11,1): (1,10,1) -1.487675E-02 (1,11,2) 0.269370 (1,12,1) -6.174907E-02
(1,11,2): (1,10,2) -3.814706E-02 (1,11,1) -0.269370 (1,11,3) 0.756413 (1,12,2) -0.165132
(1,11,3): (1,10,3) -5.638460E-02 (1,11,2) -0.756413 (1,11,4) 1.60938 (1,12,3) -0.483330
(1,11,4): (1,10,4) 0.324163 (1,11,3) -1.60938 (1,11,5) 2.49363 (1,12,4) -1.26468
(1,11,5): (1,10,5) 3.88621 (1,11,4) -2.49363 (1,11,6) 0.404349 (1,12,5) -2.73114
(1,11,6): (1,10,6) 2.36367 (1,11,5) -0.404349 (1,11,7) -0.401934 (1,12,6) -2.81194
(1,11,7): (1,10,7) 3.88612 (1,11,6) 0.401934 (1,11,8) -2.48573 (1,12,7) -2.73192
(1,11,8): (1,10,8) 0.323495 (1,11,7) 2.48573 (1,11,9) -1.58098 (1,12,8) -1.26794
(1,11,9): (1,10,9) -5.934916E-02 (1,11,8) 1.58098 (1,11,10) -0.663237 (1,12,9) -0.495930
(1,11,10): (1,10,10) -4.971333E-02 (1,11,9) 0.663237 (1,12,10) -0.210486
(1,12,1): (1,11,1) 6.174907E-02 (1,12,2) 0.165881 (1,13,1) -6.084414E-02
(1,12,2): (1,11,2) 0.165132 (1,12,1) -0.165881 (1,12,3) 0.437369 (1,13,2) -0.151076
(1,12,3): (1,11,3) 0.483330 (1,12,2) -0.437369 (1,12,4) 0.825500 (1,13,3) -0.398213
(1,12,4): (1,11,4) 1.26468 (1,12,3) -0.825500 (1,12,5) 1.03026 (1,13,4) -0.889930
(1,12,5): (1,11,5) 2.73114 (1,12,4) -1.03026 (1,12,6) 0.325077 (1,13,5) -1.54239
(1,12,6): (1,11,6) 2.81194 (1,12,5) -0.325077 (1,12,7) -0.323431 (1,13,6) -1.72622
(1,12,7): (1,11,7) 2.73192 (1,12,6) 0.323431 (1,12,8) -1.02495 (1,13,7) -1.54320
(1,12,8): (1,11,8) 1.26794 (1,12,7) 1.02495 (1,12,9) -0.806701 (1,13,8) -0.893331
(1,12,9): (1,11,9) 0.495930 (1,12,8) 0.806701 (1,12,10) -0.377329 (1,13,9) -0.411042
(1,12,10): (1,11,10) 0.210486 (1,12,9) 0.377329 (1,13,10) -0.195135
(1,13,1): (1,12,1) 6.084414E-02 (1,13,2) 7.563593E-02 (1,14,1) -3.479920E-02
(1,13,2): (1,12,2) 0.151076 (1,13,1) -7.563593E-02 (1,13,3) 0.190136 (1,14,2) -8.187133E-02
(1,13,3): (1,12,3) 0.398213 (1,13,2) -0.190136 (1,13,4) 0.334089 (1,14,3) -0.202923
(1,13,4): (1,12,4) 0.889930 (1,13,3) -0.334089 (1,13,5) 0.380931 (1,14,4) -0.421803
(1,13,5): (1,12,5) 1.54239 (1,13,4) -0.380931 (1,13,6) 0.143627 (1,14,5) -0.678380
(1,13,6): (1,12,6) 1.72622 (1,13,5) -0.143627 (1,13,7) -0.142777 (1,14,6) -0.772229
(1,13,7): (1,12,7) 1.54320 (1,13,6) 0.142777 (1,13,8) -0.378245 (1,14,7) -0.678866
(1,13,8): (1,12,8) 0.893331 (1,13,7) 0.378245 (1,13,9) -0.324815 (1,14,8) -0.423842
(1,13,9): (1,12,9) 0.411042 (1,13,8) 0.324815 (1,13,10) -0.161493 (1,14,9) -0.210430
(1,13,10): (1,12,10) 0.195135 (1,13,9) 0.161493 (1,14,10) -0.106694
(1,14,1): (1,13,1) 3.479920E-02 (1,14,2) 2.856672E-02 (1,15,1) -1.365887E-02
(1,14,2): (1,13,2) 8.187133E-02 (1,14,1) -2.856672E-02 (1,14,3) 6.910062E-02 (1,15,2) -3.092251E-02
(1,14,3): (1,13,3) 0.202923 (1,14,2) -6.910062E-02 (1,14,4) 0.115398 (1,15,3) -7.359501E-02
(1,14,4): (1,13,4) 0.421803 (1,14,3) -0.115398 (1,14,5) 0.125097 (1,15,4) -0.146694
(1,14,5): (1,13,5) 0.678380 (1,14,4) -0.125097 (1,14,6) 5.034774E-02 (1,15,5) -0.227647
(1,14,6): (1,13,6) 0.772229 (1,14,5) -5.034774E-02 (1,14,7) -4.998161E-02 (1,15,6) -0.259761
(1,14,7): (1,13,7) 0.678866 (1,14,6) 4.998161E-02 (1,14,8) -0.123968 (1,15,7) -0.227847
(1,14,8): (1,13,8) 0.423842 (1,14,7) 0.123968 (1,14,9) -0.111611 (1,15,8) -0.147524
(1,14,9): (1,13,9) 0.210430 (1,14,8) 0.111611 (1,14,10) -5.780719E-02 (1,15,9) -7.658978E-02
(1,14,10): (1,13,10) 0.106694 (1,14,9) 5.780719E-02 (1,15,10) -4.054524E-02
(1,15,1): (1,14,1) 1.365887E-02 (1,15,2) 1.130349E-02
(1,15,2): (1,14,2) 3.092251E-02 (1,15,1) -1.130349E-02 (1,15,3) 2.643002E-02
(1,15,3): (1,14,3) 7.359501E-02 (1,15,2) -2.643002E-02 (1,15,4) 4.232259E-02
(1,15,4): (1,14,4) 0.146694 (1,15,3) -4.232259E-02 (1,15,5) 4.422634E-02
(1,15,5): (1,14,5) 0.227647 (1,15,4) -4.422634E-02 (1,15,6) 1.829990E-02
(1,15,6): (1,14,6) 0.259761 (1,15,5) -1.829990E-02 (1,15,7) -1.813361E-02
(1,15,7): (1,14,7) 0.227847 (1,15,6) 1.813361E-02 (1,15,8) -4.372765E-02
(1,15,8): (1,14,8) 0.147524 (1,15,7) 4.372765E-02 (1,15,9) -4.070200E-02
(1,15,9): (1,14,9) 7.658978E-02 (1,15,8) 4.070200E-02 (1,15,10) -2.176940E-02
(1,15,10): (1,14,10) 4.054524E-02 (1,15,9) 2.176940E-02

 WEL PACKAGE (WEL-1) FLOW RATES   PERIOD      2   STEP       39
 ----------------------------------------------------------------------------------------
   NUMBER   CELLID                    RATE       NAME                                    
 ----------------------------------------------------------------------------------------
     1      (1,8,6)              -213.23853      WEL                                     
 ----------------------------------------------------------------------------------------




 API PACKAGE (MAR) FLOW RATES   PERIOD      2   STEP       39
 -----------------------------------------------
   NUMBER   CELLID                    RATE      
 -----------------------------------------------
     1      (1,6,5)               46.666667     
     2      (1,6,6)               46.666667     
     3      (1,6,7)               46.666667     
     4      (1,10,5)              24.412843     
     5      (1,10,6)              24.412843     
     6      (1,10,7)              24.412843     
 -----------------------------------------------



1
  HEAD IN LAYER   1 AT END OF TIME STEP  39 IN STRESS PERIOD    2
  ---------------------------------------------------------------------------

            1           2           3           4           5           6           7           8           9          10
 ........................................................................................................................
   1   1.1136E-03  2.3740E-03  5.3462E-03  1.0167E-02  1.5281E-02  1.7407E-02  1.5299E-02  1.0240E-02  5.5973E-03  3.1406E-03
   2   2.6416E-03  5.8769E-03  1.3815E-02  2.7365E-02  4.2456E-02  4.8576E-02  4.2497E-02  2.7530E-02  1.4399E-02  7.7226E-03
   3   6.5905E-03  1.5349E-02  3.7867E-02  7.8832E-02  0.1277      0.1464      0.1278      7.9222E-02  3.9291E-02  2.0018E-02
   4   1.3694E-02  3.3573E-02  8.7867E-02  0.1959      0.3405      0.3883      0.3407      0.1967      9.0746E-02  4.3395E-02
   5   2.1447E-02  5.5670E-02  0.1575      0.3919      0.7875      0.8735      0.7878      0.3930      0.1618      7.1211E-02
   6   2.0993E-02  5.6630E-02  0.1761      0.5382       1.626       1.635       1.627      0.5393      0.1804      7.1861E-02
   7   5.3194E-03  5.4446E-03 -9.8528E-03 -9.7960E-02 -0.4251      -1.553     -0.4250     -9.7465E-02 -8.4045E-03  8.6925E-03
   8  -5.9625E-03 -3.2230E-02 -0.1514     -0.6086      -2.237      -8.591      -2.237     -0.6085     -0.1520     -3.7694E-02
   9   2.6735E-03 -3.3791E-03 -4.2256E-02 -0.2034     -0.6977      -1.885     -0.6976     -0.2030     -4.1286E-02 -2.1722E-03
  10   1.6610E-02  4.1114E-02  0.1141      0.3077      0.8709      0.7712      0.8712      0.3086      0.1176      5.2963E-02
  11   1.8095E-02  4.4911E-02  0.1197      0.2763      0.5135      0.5518      0.5137      0.2773      0.1234      5.7906E-02
  12   1.1931E-02  2.8472E-02  7.1897E-02  0.1532      0.2537      0.2853      0.2538      0.1539      7.4433E-02  3.6979E-02
  13   5.8538E-03  1.3407E-02  3.2360E-02  6.5551E-02  0.1033      0.1175      0.1033      6.5901E-02  3.3632E-02  1.7537E-02
  14   2.3759E-03  5.2311E-03  1.2133E-02  2.3645E-02  3.6110E-02  4.1124E-02  3.6147E-02  2.3794E-02  1.2660E-02  6.8864E-03
  15   1.0104E-03  2.1405E-03  4.7822E-03  9.0106E-03  1.3427E-02  1.5255E-02  1.3444E-02  9.0771E-03  5.0106E-03  2.8347E-03

 HEAD WILL BE SAVED ON UNIT 1043 AT END OF TIME STEP   39, STRESS PERIOD    2


  VOLUME BUDGET FOR ENTIRE MODEL AT END OF TIME STEP   39, STRESS PERIOD   2
  ---------------------------------------------------------------------------------------------------

     CUMULATIVE VOLUME      L**3       RATES FOR THIS TIME STEP      L**3/T          PACKAGE NAME    
     ------------------                 ------------------------                     ----------------

           IN:                                      IN:
           ---                                      ---
              STO-SS =          18.5924                STO-SS =       2.4352E-02     STORAGE                          
              STO-SY =       46025.8282                STO-SY =          50.8266     STORAGE                          
                 WEL =           0.0000                   WEL =           0.0000     WEL-1                            
                 API =       95530.0249                   API =         213.2385     MAR                              
                 CHD =       2.8247E-08                   CHD =           0.0000     CHD_0                            

            TOTAL IN =      141574.4455              TOTAL IN =         264.0895

          OUT:                                     OUT:
          ----                                     ----
              STO-SS =          23.9510                STO-SS =       2.6067E-02     STORAGE                          
              STO-SY =       46020.4696                STO-SY =          50.8249     STORAGE                          
                 WEL =       95530.0249                   WEL =         213.2385     WEL-1                            
                 API =           0.0000                   API =           0.0000     MAR                              
                 CHD =       3.0388E-08                   CHD =           0.0000     CHD_0                            

           TOTAL OUT =      141574.4455             TOTAL OUT =         264.0895

            IN - OUT =       1.2611E-07              IN - OUT =       3.5614E-09

 PERCENT DISCREPANCY =           0.00     PERCENT DISCREPANCY =           0.00




         TIME SUMMARY AT END OF TIME STEP   39 IN STRESS PERIOD    2
                    SECONDS     MINUTES      HOURS       DAYS        YEARS
                    -----------------------------------------------------------
   TIME STEP LENGTH 8.64000E+05  14400.      240.00      10.000     2.73785E-02
 STRESS PERIOD TIME 3.36960E+07 5.61600E+05  9360.0      390.00      1.0678    
         TOTAL TIME 3.37824E+07 5.63040E+05  9384.0      391.00      1.0705    


end timestep


start timestep kper="2" kstp="40" mode="normal"

 UBDSV1 SAVING           STO-SS ON UNIT   1042 AT TIME STEP     40, STRESS PERIOD      2
 UBDSV1 SAVING           STO-SY ON UNIT   1042 AT TIME STEP     40, STRESS PERIOD      2
 UBDSV1 SAVING     FLOW-JA-FACE ON UNIT   1042 AT TIME STEP     40, STRESS PERIOD      2
 UBDSV06 SAVING       DATA-SPDIS IN MODEL GWF              PACKAGE NPF             CONNECTED TO MODEL GWF              PACKAGE NPF              ON UNIT   1042 AT TIME STEP     40, STRESS PERIOD      2
 UBDSV06 SAVING              WEL IN MODEL GWF              PACKAGE GWF             CONNECTED TO MODEL GWF              PACKAGE WEL-1            ON UNIT   1042 AT TIME STEP     40, STRESS PERIOD      2
 UBDSV06 SAVING              API IN MODEL GWF              PACKAGE GWF             CONNECTED TO MODEL GWF              PACKAGE MAR              ON UNIT   1042 AT TIME STEP     40, STRESS PERIOD      2
 UBDSV06 SAVING              CHD IN MODEL GWF              PACKAGE GWF             CONNECTED TO MODEL GWF              PACKAGE CHD_0            ON UNIT   1042 AT TIME STEP     40, STRESS PERIOD      2

    CALCULATED INTERCELL FLOW FOR PERIOD 2 STEP 40
(1,1,1): (1,1,2) 1.389315E-02 (1,2,1) 1.679693E-02
(1,1,2): (1,1,1) -1.389315E-02 (1,1,3) 3.241726E-02 (1,2,2) 3.788192E-02
(1,1,3): (1,1,2) -3.241726E-02 (1,1,4) 5.199155E-02 (1,2,3) 9.039398E-02
(1,1,4): (1,1,3) -5.199155E-02 (1,1,5) 5.469425E-02 (1,2,4) 0.181867
(1,1,5): (1,1,4) -5.469425E-02 (1,1,6) 2.272401E-02 (1,2,5) 0.285823
(1,1,6): (1,1,5) -2.272401E-02 (1,1,7) -2.250794E-02 (1,2,6) 0.327539
(1,1,7): (1,1,6) 2.250794E-02 (1,1,8) -5.405858E-02 (1,2,7) 0.286078
(1,1,8): (1,1,7) 5.405858E-02 (1,1,9) -4.995689E-02 (1,2,8) 0.182907
(1,1,9): (1,1,8) 4.995689E-02 (1,1,10) -2.663690E-02 (1,2,9) 9.409668E-02
(1,1,10): (1,1,9) 2.663690E-02 (1,2,10) 4.968234E-02
(1,2,1): (1,1,1) -1.679693E-02 (1,2,2) 3.497753E-02 (1,3,1) 4.276569E-02
(1,2,2): (1,1,2) -3.788192E-02 (1,2,1) -3.497753E-02 (1,2,3) 8.492646E-02 (1,3,2) 0.100936
(1,2,3): (1,1,3) -9.039398E-02 (1,2,2) -8.492646E-02 (1,2,4) 0.143430 (1,3,3) 0.253314
(1,2,4): (1,1,4) -0.181867 (1,2,3) -0.143430 (1,2,5) 0.158520 (1,3,4) 0.538468
(1,2,5): (1,1,5) -0.285823 (1,2,4) -0.158520 (1,2,6) 6.433109E-02 (1,3,5) 0.889740
(1,2,6): (1,1,6) -0.327539 (1,2,5) -6.433109E-02 (1,2,7) -6.386076E-02 (1,3,6) 1.02159
(1,2,7): (1,1,7) -0.286078 (1,2,6) 6.386076E-02 (1,2,8) -0.157098 (1,3,7) 0.890359
(1,2,8): (1,1,8) -0.182907 (1,2,7) 0.157098 (1,2,9) -0.138728 (1,3,8) 0.541016
(1,2,9): (1,1,9) -9.409668E-02 (1,2,8) 0.138728 (1,2,10) -7.104103E-02 (1,3,9) 0.262575
(1,2,10): (1,1,10) -4.968234E-02 (1,2,9) 7.104103E-02 (1,3,10) 0.131412
(1,3,1): (1,2,1) -4.276569E-02 (1,3,2) 9.314328E-02 (1,4,1) 7.552037E-02
(1,3,2): (1,2,2) -0.100936 (1,3,1) -9.314328E-02 (1,3,3) 0.237281 (1,4,2) 0.190860
(1,3,3): (1,2,3) -0.253314 (1,3,2) -0.237281 (1,3,4) 0.428275 (1,4,3) 0.519508
(1,3,4): (1,2,4) -0.538468 (1,3,3) -0.428275 (1,3,5) 0.508498 (1,4,4) 1.21788
(1,3,5): (1,2,5) -0.889740 (1,3,4) -0.508498 (1,3,6) 0.195139 (1,4,5) 2.23102
(1,3,6): (1,2,6) -1.02159 (1,3,5) -0.195139 (1,3,7) -0.194053 (1,4,6) 2.54569
(1,3,7): (1,2,7) -0.890359 (1,3,6) 0.194053 (1,3,8) -0.505140 (1,4,7) 2.23206
(1,3,8): (1,2,8) -0.541016 (1,3,7) 0.505140 (1,3,9) -0.416831 (1,4,8) 1.22215
(1,3,9): (1,2,9) -0.262575 (1,3,8) 0.416831 (1,3,10) -0.202125 (1,4,9) 0.535421
(1,3,10): (1,2,10) -0.131412 (1,3,9) 0.202125 (1,4,10) 0.245679
(1,4,1): (1,3,1) -7.552037E-02 (1,4,2) 0.208503 (1,5,1) 8.037650E-02
(1,4,2): (1,3,2) -0.190860 (1,4,1) -0.208503 (1,4,3) 0.566078 (1,5,2) 0.226382
(1,4,3): (1,3,3) -0.519508 (1,4,2) -0.566078 (1,4,4) 1.12604 (1,5,3) 0.712792
(1,4,4): (1,3,4) -1.21788 (1,4,3) -1.12604 (1,4,5) 1.51498 (1,5,4) 2.04128
(1,4,5): (1,3,5) -2.23102 (1,4,4) -1.51498 (1,4,6) 0.504062 (1,5,5) 4.82284
(1,4,6): (1,3,6) -2.54569 (1,4,5) -0.504062 (1,4,7) -0.501950 (1,5,6) 5.27588
(1,4,7): (1,3,7) -2.23206 (1,4,6) 0.501950 (1,4,8) -1.50834 (1,5,7) 4.82391
(1,4,8): (1,3,8) -1.22215 (1,4,7) 1.50834 (1,4,9) -1.10278 (1,5,8) 2.04550
(1,4,9): (1,3,9) -0.535421 (1,4,8) 1.10278 (1,4,10) -0.491744 (1,5,9) 0.728973
(1,4,10): (1,3,10) -0.245679 (1,4,9) 0.491744 (1,5,10) 0.285985
(1,5,1): (1,4,1) -8.037650E-02 (1,5,2) 0.354694 (1,6,1) -7.555072E-03
(1,5,2): (1,4,2) -0.226382 (1,5,1) -0.354694 (1,5,3) 1.05409 (1,6,2) 2.160239E-03
(1,5,3): (1,4,3) -0.712792 (1,5,2) -1.05409 (1,5,4) 2.45960 (1,6,3) 0.171241
(1,5,4): (1,4,4) -2.04128 (1,5,3) -2.45960 (1,5,5) 4.28405 (1,6,4) 1.50373
(1,5,5): (1,4,5) -4.82284 (1,5,4) -4.28405 (1,5,6) 0.941941 (1,6,5) 9.69485
(1,5,6): (1,4,6) -5.27588 (1,5,5) -0.941941 (1,5,7) -0.938781 (1,6,6) 8.79255
(1,5,7): (1,4,7) -4.82391 (1,5,6) 0.938781 (1,5,8) -4.27402 (1,6,7) 9.69486
(1,5,8): (1,4,8) -2.04550 (1,5,7) 4.27402 (1,5,9) -2.42385 (1,6,8) 1.50320
(1,5,9): (1,4,9) -0.728973 (1,5,8) 2.42385 (1,5,10) -0.935612 (1,6,9) 0.169159
(1,5,10): (1,4,10) -0.285985 (1,5,9) 0.935612 (1,6,10) -3.172072E-03
(1,6,1): (1,5,1) 7.555072E-03 (1,6,2) 0.364443 (1,7,1) -0.165189
(1,6,2): (1,5,2) -2.160239E-03 (1,6,1) -0.364443 (1,6,3) 1.22489 (1,7,2) -0.532198
(1,6,3): (1,5,3) -0.171241 (1,6,2) -1.22489 (1,6,4) 3.81974 (1,7,3) -1.93080
(1,6,4): (1,5,4) -1.50373 (1,6,3) -3.81974 (1,6,5) 12.6508 (1,7,4) -6.77100
(1,6,5): (1,5,5) -9.69485 (1,6,4) -12.6508 (1,6,6) 9.801640E-02 (1,7,5) -23.9425
(1,6,6): (1,5,6) -8.79255 (1,6,5) -9.801640E-02 (1,6,7) -9.485187E-02 (1,7,6) -37.1634
(1,6,7): (1,5,7) -9.69486 (1,6,6) 9.485187E-02 (1,6,8) -12.6407 (1,7,7) -23.9444
(1,6,8): (1,5,8) -1.50320 (1,6,7) 12.6407 (1,6,9) -3.78516 (1,7,8) -6.77836
(1,6,9): (1,5,9) -0.169159 (1,6,8) 3.78516 (1,6,10) -1.10951 (1,7,9) -1.96169
(1,6,10): (1,5,10) 3.172072E-03 (1,6,9) 1.10951 (1,7,10) -0.659359
(1,7,1): (1,6,1) 0.165189 (1,7,2) -1.958519E-03 (1,8,1) -0.118370
(1,7,2): (1,6,2) 0.532198 (1,7,1) 1.958519E-03 (1,7,3) -0.164501 (1,8,2) -0.389029
(1,7,3): (1,6,3) 1.93080 (1,7,2) 0.164501 (1,7,4) -0.901883 (1,8,3) -1.44167
(1,7,4): (1,6,4) 6.77100 (1,7,3) 0.901883 (1,7,5) -3.25319 (1,8,4) -5.10451
(1,7,5): (1,6,5) 23.9425 (1,7,4) 3.25319 (1,7,6) -10.7774 (1,8,5) -17.3970
(1,7,6): (1,6,6) 37.1634 (1,7,5) 10.7774 (1,7,7) 10.7791 (1,8,6) -59.4271
(1,7,7): (1,6,7) 23.9444 (1,7,6) -10.7791 (1,7,8) 3.25715 (1,8,7) -17.3982
(1,7,8): (1,6,8) 6.77836 (1,7,7) -3.25715 (1,7,9) 0.911981 (1,8,8) -5.10952
(1,7,9): (1,6,9) 1.96169 (1,7,8) -0.911981 (1,7,10) 0.182513 (1,8,9) -1.46336
(1,7,10): (1,6,10) 0.659359 (1,7,9) -0.182513 (1,8,10) -0.480196
(1,8,1): (1,7,1) 0.118370 (1,8,2) -0.272303 (1,9,1) 8.902850E-02
(1,8,2): (1,7,2) 0.389029 (1,8,1) 0.272303 (1,8,3) -1.21478 (1,9,2) 0.292402
(1,8,3): (1,7,3) 1.44167 (1,8,2) 1.21478 (1,8,4) -4.54465 (1,9,3) 1.08994
(1,8,4): (1,7,4) 5.10451 (1,8,3) 4.54465 (1,8,5) -15.3022 (1,9,4) 3.95467
(1,8,5): (1,7,5) 17.3970 (1,8,4) 15.3022 (1,8,6) -49.1967 (1,9,5) 14.2385
(1,8,6): (1,7,6) 59.4271 (1,8,5) 49.1967 (1,8,7) 49.1975 (1,9,6) 54.1758
(1,8,7): (1,7,7) 17.3982 (1,8,6) -49.1975 (1,8,8) 15.3023 (1,9,7) 14.2393
(1,8,8): (1,7,8) 5.10952 (1,8,7) -15.3023 (1,8,9) 4.53774 (1,9,8) 3.95832
(1,8,9): (1,7,9) 1.46336 (1,8,8) -4.53774 (1,8,10) 1.16275 (1,9,9) 1.10613
(1,8,10): (1,7,10) 0.480196 (1,8,9) -1.16275 (1,9,10) 0.360845
(1,9,1): (1,8,1) -8.902850E-02 (1,9,2) -6.896953E-02 (1,10,1) 0.146016
(1,9,2): (1,8,2) -0.292402 (1,9,1) 6.896953E-02 (1,9,3) -0.416244 (1,10,2) 0.459105
(1,9,3): (1,8,3) -1.08994 (1,9,2) 0.416244 (1,9,4) -1.66297 (1,10,3) 1.60281
(1,9,4): (1,8,4) -3.95467 (1,9,3) 1.66297 (1,9,5) -4.90829 (1,10,4) 5.28729
(1,9,5): (1,8,5) -14.2385 (1,9,4) 4.90829 (1,9,6) -11.0374 (1,10,5) 17.0093
(1,9,6): (1,8,6) -54.1758 (1,9,5) 11.0374 (1,9,7) 11.0387 (1,10,6) 28.5205
(1,9,7): (1,8,7) -14.2393 (1,9,6) -11.0387 (1,9,8) 4.91131 (1,10,7) 17.0109
(1,9,8): (1,8,8) -3.95832 (1,9,7) -4.91131 (1,9,9) 1.66896 (1,10,8) 5.29367
(1,9,9): (1,8,9) -1.10613 (1,9,8) -1.66896 (1,9,10) 0.417040 (1,10,9) 1.63016
(1,9,10): (1,8,10) -0.360845 (1,9,9) -0.417040 (1,10,10) 0.571008
(1,10,1): (1,9,1) -0.146016 (1,10,2) 0.243498 (1,11,1) 1.866831E-02
(1,10,2): (1,9,2) -0.459105 (1,10,1) -0.243498 (1,10,3) 0.719347 (1,11,2) 4.845113E-02
(1,10,3): (1,9,3) -1.60281 (1,10,2) -0.719347 (1,10,4) 1.93390 (1,11,3) 8.550277E-02
(1,10,4): (1,9,4) -5.28729 (1,10,3) -1.93390 (1,10,5) 5.99569 (1,11,4) -0.253907
(1,10,5): (1,9,5) -17.0093 (1,10,4) -5.99569 (1,10,6) -1.11632 (1,11,5) -3.73581
(1,10,6): (1,9,6) -28.5205 (1,10,5) 1.11632 (1,10,7) 1.11888 (1,11,6) -2.19965
(1,10,7): (1,9,7) -17.0109 (1,10,6) -1.11888 (1,10,8) -5.98766 (1,11,7) -3.73568
(1,10,8): (1,9,8) -5.29367 (1,10,7) 5.98766 (1,10,9) -1.90667 (1,11,8) -0.253052
(1,10,9): (1,9,9) -1.63016 (1,10,8) 1.90667 (1,10,10) -0.633577 (1,11,9) 8.923278E-02
(1,10,10): (1,9,10) -0.571008 (1,10,9) 0.633577 (1,11,10) 6.286776E-02
(1,11,1): (1,10,1) -1.866831E-02 (1,11,2) 0.273347 (1,12,1) -6.283200E-02
(1,11,2): (1,10,2) -4.845113E-02 (1,11,1) -0.273347 (1,11,3) 0.756639 (1,12,2) -0.164512
(1,11,3): (1,10,3) -8.550277E-02 (1,11,2) -0.756639 (1,11,4) 1.58916 (1,12,3) -0.474238
(1,11,4): (1,10,4) 0.253907 (1,11,3) -1.58916 (1,11,5) 2.44724 (1,12,4) -1.23106
(1,11,5): (1,10,5) 3.73581 (1,11,4) -2.44724 (1,11,6) 0.387498 (1,12,5) -2.65630
(1,11,6): (1,10,6) 2.19965 (1,11,5) -0.387498 (1,11,7) -0.384827 (1,12,6) -2.72261
(1,11,7): (1,10,7) 3.73568 (1,11,6) 0.384827 (1,11,8) -2.43871 (1,12,7) -2.65713
(1,11,8): (1,10,8) 0.253052 (1,11,7) 2.43871 (1,11,9) -1.55910 (1,12,8) -1.23449
(1,11,9): (1,10,9) -8.923278E-02 (1,11,8) 1.55910 (1,11,10) -0.660087 (1,12,9) -0.487220
(1,11,10): (1,10,10) -6.286776E-02 (1,11,9) 0.660087 (1,12,10) -0.210316
(1,12,1): (1,11,1) 6.283200E-02 (1,12,2) 0.171557 (1,13,1) -6.405352E-02
(1,12,2): (1,11,2) 0.164512 (1,12,1) -0.171557 (1,12,3) 0.446062 (1,13,2) -0.155893
(1,12,3): (1,11,3) 0.474238 (1,12,2) -0.446062 (1,12,4) 0.829794 (1,13,3) -0.404134
(1,12,4): (1,11,4) 1.23106 (1,12,3) -0.829794 (1,12,5) 1.02465 (1,13,4) -0.891761
(1,12,5): (1,11,5) 2.65630 (1,12,4) -1.02465 (1,12,6) 0.322383 (1,13,5) -1.53338
(1,12,6): (1,11,6) 2.72261 (1,12,5) -0.322383 (1,12,7) -0.320534 (1,13,6) -1.71257
(1,12,7): (1,11,7) 2.65713 (1,12,6) 0.320534 (1,12,8) -1.01882 (1,13,7) -1.53426
(1,12,8): (1,11,8) 1.23449 (1,12,7) 1.01882 (1,12,9) -0.809560 (1,13,8) -0.895451
(1,12,9): (1,11,9) 0.487220 (1,12,8) 0.809560 (1,12,10) -0.382719 (1,13,9) -0.417798
(1,12,10): (1,11,10) 0.210316 (1,12,9) 0.382719 (1,13,10) -0.201954
(1,13,1): (1,12,1) 6.405352E-02 (1,13,2) 7.970397E-02 (1,14,1) -3.745618E-02
(1,13,2): (1,12,2) 0.155893 (1,13,1) -7.970397E-02 (1,13,3) 0.197719 (1,14,2) -8.646256E-02
(1,13,3): (1,12,3) 0.404134 (1,13,2) -0.197719 (1,13,4) 0.342459 (1,14,3) -0.210859
(1,13,4): (1,12,4) 0.891761 (1,13,3) -0.342459 (1,13,5) 0.386098 (1,14,4) -0.432707
(1,13,5): (1,12,5) 1.53338 (1,13,4) -0.386098 (1,13,6) 0.145485 (1,14,5) -0.690011
(1,13,6): (1,12,6) 1.71257 (1,13,5) -0.145485 (1,13,7) -0.144515 (1,14,6) -0.783970
(1,13,7): (1,12,7) 1.53426 (1,13,6) 0.144515 (1,13,8) -0.383098 (1,14,7) -0.690559
(1,13,8): (1,12,8) 0.895451 (1,13,7) 0.383098 (1,13,9) -0.332302 (1,14,8) -0.434966
(1,13,9): (1,12,9) 0.417798 (1,13,8) 0.332302 (1,13,10) -0.166950 (1,14,9) -0.219029
(1,13,10): (1,12,10) 0.201954 (1,13,9) 0.166950 (1,14,10) -0.112998
(1,14,1): (1,13,1) 3.745618E-02 (1,14,2) 3.070089E-02 (1,15,1) -1.495111E-02
(1,14,2): (1,13,2) 8.646256E-02 (1,14,1) -3.070089E-02 (1,14,3) 7.333874E-02 (1,15,2) -3.324140E-02
(1,14,3): (1,13,3) 0.210859 (1,14,2) -7.333874E-02 (1,14,4) 0.120808 (1,15,3) -7.789846E-02
(1,14,4): (1,13,4) 0.432707 (1,14,3) -0.120808 (1,14,5) 0.129555 (1,15,4) -0.153384
(1,14,5): (1,13,5) 0.690011 (1,14,4) -0.129555 (1,14,6) 5.210631E-02 (1,15,5) -0.236111
(1,14,6): (1,13,6) 0.783970 (1,14,5) -5.210631E-02 (1,14,7) -5.168100E-02 (1,15,6) -0.268897
(1,14,7): (1,13,7) 0.690559 (1,14,6) 5.168100E-02 (1,14,8) -0.128270 (1,15,7) -0.236339
(1,14,8): (1,13,8) 0.434966 (1,14,7) 0.128270 (1,14,9) -0.116583 (1,15,8) -0.154318
(1,14,9): (1,13,9) 0.219029 (1,14,8) 0.116583 (1,14,10) -6.097345E-02 (1,15,9) -8.121057E-02
(1,14,10): (1,13,10) 0.112998 (1,14,9) 6.097345E-02 (1,15,10) -4.370325E-02
(1,15,1): (1,14,1) 1.495111E-02 (1,15,2) 1.241107E-02
(1,15,2): (1,14,2) 3.324140E-02 (1,15,1) -1.241107E-02 (1,15,3) 2.868370E-02
(1,15,3): (1,14,3) 7.789846E-02 (1,15,2) -2.868370E-02 (1,15,4) 4.534683E-02
(1,15,4): (1,14,4) 0.153384 (1,15,3) -4.534683E-02 (1,15,5) 4.691512E-02
(1,15,5): (1,14,5) 0.236111 (1,15,4) -4.691512E-02 (1,15,6) 1.938972E-02
(1,15,6): (1,14,6) 0.268897 (1,15,5) -1.938972E-02 (1,15,7) -1.919286E-02
(1,15,7): (1,14,7) 0.236339 (1,15,6) 1.919286E-02 (1,15,8) -4.633680E-02
(1,15,8): (1,14,8) 0.154318 (1,15,7) 4.633680E-02 (1,15,9) -4.350223E-02
(1,15,9): (1,14,9) 8.121057E-02 (1,15,8) 4.350223E-02 (1,15,10) -2.347369E-02
(1,15,10): (1,14,10) 4.370325E-02 (1,15,9) 2.347369E-02

 WEL PACKAGE (WEL-1) FLOW RATES   PERIOD      2   STEP       40
 ----------------------------------------------------------------------------------------
   NUMBER   CELLID                    RATE       NAME                                    
 ----------------------------------------------------------------------------------------
     1      (1,8,6)              -212.67023      WEL                                     
 ----------------------------------------------------------------------------------------




 API PACKAGE (MAR) FLOW RATES   PERIOD      2   STEP       40
 -----------------------------------------------
   NUMBER   CELLID                    RATE      
 -----------------------------------------------
     1      (1,6,5)               46.666667     
     2      (1,6,6)               46.666667     
     3      (1,6,7)               46.666667     
     4      (1,10,5)              24.223409     
     5      (1,10,6)              24.223409     
     6      (1,10,7)              24.223409     
 -----------------------------------------------



1
  HEAD IN LAYER   1 AT END OF TIME STEP  40 IN STRESS PERIOD    2
  ---------------------------------------------------------------------------

            1           2           3           4           5           6           7           8           9          10
 ........................................................................................................................
   1   1.2670E-03  2.6559E-03  5.8957E-03  1.1089E-02  1.6550E-02  1.8818E-02  1.6571E-02  1.1174E-02  6.1841E-03  3.5220E-03
   2   2.9462E-03  6.4417E-03  1.4922E-02  2.9223E-02  4.5004E-02  5.1404E-02  4.5051E-02  2.9411E-02  1.5579E-02  8.4860E-03
   3   7.2197E-03  1.6519E-02  4.0152E-02  8.2628E-02  0.1328      0.1520      0.1329      8.3067E-02  4.1727E-02  2.1599E-02
   4   1.4761E-02  3.5537E-02  9.1631E-02  0.2020      0.3484      0.3969      0.3486      0.2029      9.4767E-02  4.6054E-02
   5   2.2780E-02  5.8045E-02  0.1618      0.3983      0.7952      0.8817      0.7955      0.3995      0.1665      7.4441E-02
   6   2.2026E-02  5.8259E-02  0.1786      0.5410       1.629       1.637       1.629      0.5421      0.1831      7.4127E-02
   7   5.5436E-03  5.3478E-03 -1.1093E-02 -0.1014     -0.4300      -1.556     -0.4299     -0.1008     -9.5597E-03  8.6758E-03
   8  -6.2869E-03 -3.3534E-02 -0.1554     -0.6171      -2.248      -8.594      -2.248     -0.6170     -0.1560     -3.9302E-02
   9   2.6136E-03 -4.2815E-03 -4.5924E-02 -0.2130     -0.7145      -1.903     -0.7144     -0.2126     -4.4923E-02 -3.2061E-03
  10   1.7190E-02  4.1439E-02  0.1126      0.3003      0.8528      0.7499      0.8530      0.3013      0.1162      5.3590E-02
  11   1.9053E-02  4.6262E-02  0.1210      0.2757      0.5086      0.5453      0.5088      0.2767      0.1250      5.9840E-02
  12   1.2782E-02  2.9887E-02  7.4165E-02  0.1559      0.2558      0.2871      0.2560      0.1566      7.6913E-02  3.8933E-02
  13   6.3850E-03  1.4344E-02  3.4049E-02  6.8063E-02  0.1063      0.1206      0.1064      6.8456E-02  3.5452E-02  1.8816E-02
  14   2.6418E-03  5.7101E-03  1.3034E-02  2.5085E-02  3.7991E-02  4.3180E-02  3.8034E-02  2.5255E-02  1.3626E-02  7.5375E-03
  15   1.1471E-03  2.3879E-03  5.2548E-03  9.7850E-03  1.4470E-02  1.6406E-02  1.4489E-02  9.8624E-03  5.5165E-03  3.1704E-03

 HEAD WILL BE SAVED ON UNIT 1043 AT END OF TIME STEP   40, STRESS PERIOD    2


  VOLUME BUDGET FOR ENTIRE MODEL AT END OF TIME STEP   40, STRESS PERIOD   2
  ---------------------------------------------------------------------------------------------------

     CUMULATIVE VOLUME      L**3       RATES FOR THIS TIME STEP      L**3/T          PACKAGE NAME    
     ------------------                 ------------------------                     ----------------

           IN:                                      IN:
           ---                                      ---
              STO-SS =          18.8313                STO-SS =       2.3888E-02     STORAGE                          
              STO-SY =       46524.0688                STO-SY =          49.8241     STORAGE                          
                 WEL =           0.0000                   WEL =           0.0000     WEL-1                            
                 API =       97656.7272                   API =         212.6702     MAR                              
                 CHD =       2.8247E-08                   CHD =           0.0000     CHD_0                            

            TOTAL IN =      144199.6273              TOTAL IN =         262.5182

          OUT:                                     OUT:
          ----                                     ----
              STO-SS =          24.2065                STO-SS =       2.5550E-02     STORAGE                          
              STO-SY =       46518.6936                STO-SY =          49.8224     STORAGE                          
                 WEL =       97656.7272                   WEL =         212.6702     WEL-1                            
                 API =           0.0000                   API =           0.0000     MAR                              
                 CHD =       3.0388E-08                   CHD =           0.0000     CHD_0                            

           TOTAL OUT =      144199.6273             TOTAL OUT =         262.5182

            IN - OUT =       1.6150E-07              IN - OUT =       3.5438E-09

 PERCENT DISCREPANCY =           0.00     PERCENT DISCREPANCY =           0.00




         TIME SUMMARY AT END OF TIME STEP   40 IN STRESS PERIOD    2
                    SECONDS     MINUTES      HOURS       DAYS        YEARS
                    -----------------------------------------------------------
   TIME STEP LENGTH 8.64000E+05  14400.      240.00      10.000     2.73785E-02
 STRESS PERIOD TIME 3.45600E+07 5.76000E+05  9600.0      400.00      1.0951    
         TOTAL TIME 3.46464E+07 5.77440E+05  9624.0      401.00      1.0979    


end timestep


start timestep kper="2" kstp="41" mode="normal"

 UBDSV1 SAVING           STO-SS ON UNIT   1042 AT TIME STEP     41, STRESS PERIOD      2
 UBDSV1 SAVING           STO-SY ON UNIT   1042 AT TIME STEP     41, STRESS PERIOD      2
 UBDSV1 SAVING     FLOW-JA-FACE ON UNIT   1042 AT TIME STEP     41, STRESS PERIOD      2
 UBDSV06 SAVING       DATA-SPDIS IN MODEL GWF              PACKAGE NPF             CONNECTED TO MODEL GWF              PACKAGE NPF              ON UNIT   1042 AT TIME STEP     41, STRESS PERIOD      2
 UBDSV06 SAVING              WEL IN MODEL GWF              PACKAGE GWF             CONNECTED TO MODEL GWF              PACKAGE WEL-1            ON UNIT   1042 AT TIME STEP     41, STRESS PERIOD      2
 UBDSV06 SAVING              API IN MODEL GWF              PACKAGE GWF             CONNECTED TO MODEL GWF              PACKAGE MAR              ON UNIT   1042 AT TIME STEP     41, STRESS PERIOD      2
 UBDSV06 SAVING              CHD IN MODEL GWF              PACKAGE GWF             CONNECTED TO MODEL GWF              PACKAGE CHD_0            ON UNIT   1042 AT TIME STEP     41, STRESS PERIOD      2

    CALCULATED INTERCELL FLOW FOR PERIOD 2 STEP 41
(1,1,1): (1,1,2) 1.524986E-02 (1,2,1) 1.838543E-02
(1,1,2): (1,1,1) -1.524986E-02 (1,1,3) 3.521581E-02 (1,2,2) 4.080064E-02
(1,1,3): (1,1,2) -3.521581E-02 (1,1,4) 5.584929E-02 (1,2,3) 9.605817E-02
(1,1,4): (1,1,3) -5.584929E-02 (1,1,5) 5.825090E-02 (1,2,4) 0.191290
(1,1,5): (1,1,4) -5.825090E-02 (1,1,6) 2.418217E-02 (1,2,5) 0.298658
(1,1,6): (1,1,5) -2.418217E-02 (1,1,7) -2.392750E-02 (1,2,6) 0.341751
(1,1,7): (1,1,6) 2.392750E-02 (1,1,8) -5.751641E-02 (1,2,7) 0.298948
(1,1,8): (1,1,7) 5.751641E-02 (1,1,9) -5.353988E-02 (1,2,8) 0.192458
(1,1,9): (1,1,8) 5.353988E-02 (1,1,10) -2.876506E-02 (1,2,9) 0.100149
(1,1,10): (1,1,9) 2.876506E-02 (1,2,10) 5.363675E-02
(1,2,1): (1,1,1) -1.838543E-02 (1,2,2) 3.766437E-02 (1,3,1) 4.612100E-02
(1,2,2): (1,1,2) -4.080064E-02 (1,2,1) -3.766437E-02 (1,2,3) 9.047026E-02 (1,3,2) 0.107079
(1,2,3): (1,1,3) -9.605817E-02 (1,2,2) -9.047026E-02 (1,2,4) 0.151043 (1,3,3) 0.265129
(1,2,4): (1,1,4) -0.191290 (1,2,3) -0.151043 (1,2,5) 0.165478 (1,3,4) 0.557836
(1,2,5): (1,1,5) -0.298658 (1,2,4) -0.165478 (1,2,6) 6.715894E-02 (1,3,5) 0.915702
(1,2,6): (1,1,6) -0.341751 (1,2,5) -6.715894E-02 (1,2,7) -6.661440E-02 (1,3,6) 1.05016
(1,2,7): (1,1,7) -0.298948 (1,2,6) 6.661440E-02 (1,2,8) -0.163865 (1,3,7) 0.916398
(1,2,8): (1,1,8) -0.192458 (1,2,7) 0.163865 (1,2,9) -0.145806 (1,3,8) 0.560657
(1,2,9): (1,1,9) -0.100149 (1,2,8) 0.145806 (1,2,10) -7.526615E-02 (1,3,9) 0.275214
(1,2,10): (1,1,10) -5.363675E-02 (1,2,9) 7.526615E-02 (1,3,10) 0.139747
(1,3,1): (1,2,1) -4.612100E-02 (1,3,2) 9.861708E-02 (1,4,1) 7.993428E-02
(1,3,2): (1,2,2) -0.107079 (1,3,1) -9.861708E-02 (1,3,3) 0.248494 (1,4,2) 0.198745
(1,3,3): (1,2,3) -0.265129 (1,3,2) -0.248494 (1,3,4) 0.443422 (1,4,3) 0.534083
(1,3,4): (1,2,4) -0.557836 (1,3,3) -0.443422 (1,3,5) 0.521984 (1,4,4) 1.24045
(1,3,5): (1,2,5) -0.915702 (1,3,4) -0.521984 (1,3,6) 0.200529 (1,4,5) 2.25947
(1,3,6): (1,2,6) -1.05016 (1,3,5) -0.200529 (1,3,7) -0.199292 (1,4,6) 2.57635
(1,3,7): (1,2,7) -0.916398 (1,3,6) 0.199292 (1,3,8) -0.518238 (1,4,7) 2.26062
(1,3,8): (1,2,8) -0.560657 (1,3,7) 0.518238 (1,3,9) -0.430886 (1,4,8) 1.24509
(1,3,9): (1,2,9) -0.275214 (1,3,8) 0.430886 (1,3,10) -0.210647 (1,4,9) 0.551097
(1,3,10): (1,2,10) -0.139747 (1,3,9) 0.210647 (1,4,10) 0.256430
(1,4,1): (1,3,1) -7.993428E-02 (1,4,2) 0.217450 (1,5,1) 8.293106E-02
(1,4,2): (1,3,2) -0.198745 (1,4,1) -0.217450 (1,4,3) 0.583995 (1,5,2) 0.230190
(1,4,3): (1,3,3) -0.534083 (1,4,2) -0.583995 (1,4,4) 1.14918 (1,5,3) 0.717856
(1,4,4): (1,3,4) -1.24045 (1,4,3) -1.14918 (1,4,5) 1.53424 (1,5,4) 2.04505
(1,4,5): (1,3,5) -2.25947 (1,4,4) -1.53424 (1,4,6) 0.511572 (1,5,5) 4.82206
(1,4,6): (1,3,6) -2.57635 (1,4,5) -0.511572 (1,4,7) -0.509202 (1,5,6) 5.27366
(1,4,7): (1,3,7) -2.26062 (1,4,6) 0.509202 (1,4,8) -1.52694 (1,5,7) 4.82321
(1,4,8): (1,3,8) -1.24509 (1,4,7) 1.52694 (1,4,9) -1.12408 (1,5,8) 2.04952
(1,4,9): (1,3,9) -0.551097 (1,4,8) 1.12408 (1,4,10) -0.505183 (1,5,9) 0.734712
(1,4,10): (1,3,10) -0.256430 (1,4,9) 0.505183 (1,5,10) 0.291352
(1,5,1): (1,4,1) -8.293106E-02 (1,5,2) 0.364905 (1,6,1) -1.074988E-02
(1,5,2): (1,4,2) -0.230190 (1,5,1) -0.364905 (1,5,3) 1.07333 (1,6,2) -5.568946E-03
(1,5,3): (1,4,3) -0.717856 (1,5,2) -1.07333 (1,5,4) 2.48166 (1,6,3) 0.152339
(1,5,4): (1,4,4) -2.04505 (1,5,3) -2.48166 (1,5,5) 4.29915 (1,6,4) 1.46645
(1,5,5): (1,4,5) -4.82206 (1,5,4) -4.29915 (1,5,6) 0.948118 (1,6,5) 9.63795
(1,5,6): (1,4,6) -5.27366 (1,5,5) -0.948118 (1,5,7) -0.944619 (1,6,6) 8.73234
(1,5,7): (1,4,7) -4.82321 (1,5,6) 0.944619 (1,5,8) -4.28827 (1,6,7) 9.63793
(1,5,8): (1,4,8) -2.04952 (1,5,7) 4.28827 (1,5,9) -2.44362 (1,6,8) 1.46573
(1,5,9): (1,4,9) -0.734712 (1,5,8) 2.44362 (1,5,10) -0.949457 (1,6,9) 0.149566
(1,5,10): (1,4,10) -0.291352 (1,5,9) 0.949457 (1,6,10) -1.325026E-02
(1,6,1): (1,5,1) 1.074988E-02 (1,6,2) 0.370104 (1,7,1) -0.173384
(1,6,2): (1,5,2) 5.568946E-03 (1,6,1) -0.370104 (1,6,3) 1.23288 (1,7,2) -0.549425
(1,6,3): (1,5,3) -0.152339 (1,6,2) -1.23288 (1,6,4) 3.82351 (1,7,3) -1.96776
(1,6,4): (1,5,4) -1.46645 (1,6,3) -3.82351 (1,6,5) 12.6492 (1,7,4) -6.83502
(1,6,5): (1,5,5) -9.63795 (1,6,4) -12.6492 (1,6,6) 0.100660 (1,7,5) -24.0267
(1,6,6): (1,5,6) -8.73234 (1,6,5) -0.100660 (1,6,7) -9.718915E-02 (1,7,6) -37.2379
(1,6,7): (1,5,7) -9.63793 (1,6,6) 9.718915E-02 (1,6,8) -12.6384 (1,7,7) -24.0288
(1,6,8): (1,5,8) -1.46573 (1,6,7) 12.6384 (1,6,9) -3.78715 (1,7,8) -6.84294
(1,6,9): (1,5,9) -0.149566 (1,6,8) 3.78715 (1,6,10) -1.11379 (1,7,9) -2.00053
(1,6,10): (1,5,10) 1.325026E-02 (1,6,9) 1.11379 (1,7,10) -0.682273
(1,7,1): (1,6,1) 0.173384 (1,7,2) -5.271820E-03 (1,8,1) -0.123914
(1,7,2): (1,6,2) 0.549425 (1,7,1) 5.271820E-03 (1,7,3) -0.175752 (1,8,2) -0.401007
(1,7,3): (1,6,3) 1.96776 (1,7,2) 0.175752 (1,7,4) -0.922316 (1,8,3) -1.46831
(1,7,4): (1,6,4) 6.83502 (1,7,3) 0.922316 (1,7,5) -3.26481 (1,8,4) -5.15124
(1,7,5): (1,6,5) 24.0267 (1,7,4) 3.26481 (1,7,6) -10.7594 (1,8,5) -17.4476
(1,7,6): (1,6,6) 37.2379 (1,7,5) 10.7594 (1,7,7) 10.7612 (1,8,6) -59.4041
(1,7,7): (1,6,7) 24.0288 (1,7,6) -10.7612 (1,7,8) 3.26906 (1,8,7) -17.4489
(1,7,8): (1,6,8) 6.84294 (1,7,7) -3.26906 (1,7,9) 0.932842 (1,8,8) -5.15662
(1,7,9): (1,6,9) 2.00053 (1,7,8) -0.932842 (1,7,10) 0.193642 (1,8,9) -1.49125
(1,7,10): (1,6,10) 0.682273 (1,7,9) -0.193642 (1,8,10) -0.496026
(1,8,1): (1,7,1) 0.123914 (1,8,2) -0.282037 (1,9,1) 9.151782E-02
(1,8,2): (1,7,2) 0.401007 (1,8,1) 0.282037 (1,8,3) -1.24065 (1,9,2) 0.295907
(1,8,3): (1,7,3) 1.46831 (1,8,2) 1.24065 (1,8,4) -4.58483 (1,9,3) 1.09155
(1,8,4): (1,7,4) 5.15124 (1,8,3) 4.58483 (1,8,5) -15.3127 (1,9,4) 3.93874
(1,8,5): (1,7,5) 17.4476 (1,8,4) 15.3127 (1,8,6) -49.0702 (1,9,5) 14.1623
(1,8,6): (1,7,6) 59.4041 (1,8,5) 49.0702 (1,8,7) 49.0711 (1,9,6) 53.9462
(1,8,7): (1,7,7) 17.4489 (1,8,6) -49.0711 (1,8,8) 15.3128 (1,9,7) 14.1633
(1,8,8): (1,7,8) 5.15662 (1,8,7) -15.3128 (1,8,9) 4.57743 (1,9,8) 3.94260
(1,8,9): (1,7,9) 1.49125 (1,8,8) -4.57743 (1,8,10) 1.18586 (1,9,9) 1.10837
(1,8,10): (1,7,10) 0.496026 (1,8,9) -1.18586 (1,9,10) 0.365923
(1,9,1): (1,8,1) -9.151782E-02 (1,9,2) -7.767555E-02 (1,10,1) 0.152402
(1,9,2): (1,8,2) -0.295907 (1,9,1) 7.767555E-02 (1,9,3) -0.443814 (1,10,2) 0.471079
(1,9,3): (1,8,3) -1.09155 (1,9,2) 0.443814 (1,9,4) -1.71915 (1,10,3) 1.62317
(1,9,4): (1,8,4) -3.93874 (1,9,3) 1.71915 (1,9,5) -4.97038 (1,10,4) 5.30392
(1,9,5): (1,8,5) -14.1623 (1,9,4) 4.97038 (1,9,6) -11.0277 (1,10,5) 16.9662
(1,9,6): (1,8,6) -53.9462 (1,9,5) 11.0277 (1,9,7) 11.0291 (1,10,6) 28.4295
(1,9,7): (1,8,7) -14.1633 (1,9,6) -11.0291 (1,9,8) 4.97358 (1,10,7) 16.9679
(1,9,8): (1,8,8) -3.94260 (1,9,7) -4.97358 (1,9,9) 1.72512 (1,10,8) 5.31076
(1,9,9): (1,8,9) -1.10837 (1,9,8) -1.72512 (1,9,10) 0.442829 (1,10,9) 1.65203
(1,9,10): (1,8,10) -0.365923 (1,9,9) -0.442829 (1,10,10) 0.587296
(1,10,1): (1,9,1) -0.152402 (1,10,2) 0.240333 (1,11,1) 2.266405E-02
(1,10,2): (1,9,2) -0.471079 (1,10,1) -0.240333 (1,10,3) 0.699877 (1,11,2) 5.895842E-02
(1,10,3): (1,9,3) -1.62317 (1,10,2) -0.699877 (1,10,4) 1.87320 (1,11,3) 0.114317
(1,10,4): (1,9,4) -5.30392 (1,10,3) -1.87320 (1,10,5) 5.87494 (1,11,4) -0.186248
(1,10,5): (1,9,5) -16.9662 (1,10,4) -5.87494 (1,10,6) -1.14681 (1,11,5) -3.59338
(1,10,6): (1,9,6) -28.4295 (1,10,5) 1.14681 (1,10,7) 1.14960 (1,11,6) -2.04498
(1,10,7): (1,9,7) -16.9679 (1,10,6) -1.14960 (1,10,8) -5.86641 (1,11,7) -3.59320
(1,10,8): (1,9,8) -5.31076 (1,10,7) 5.86641 (1,10,9) -1.84495 (1,11,8) -0.185186
(1,10,9): (1,9,9) -1.65203 (1,10,8) 1.84495 (1,10,10) -0.613090 (1,11,9) 0.118868
(1,10,10): (1,9,10) -0.587296 (1,10,9) 0.613090 (1,11,10) 7.635017E-02
(1,11,1): (1,10,1) -2.266405E-02 (1,11,2) 0.276706 (1,12,1) -6.368630E-02
(1,11,2): (1,10,2) -5.895842E-02 (1,11,1) -0.276706 (1,11,3) 0.755579 (1,12,2) -0.163358
(1,11,3): (1,10,3) -0.114317 (1,11,2) -0.755579 (1,11,4) 1.56795 (1,12,3) -0.464172
(1,11,4): (1,10,4) 0.186248 (1,11,3) -1.56795 (1,11,5) 2.40179 (1,12,4) -1.19672
(1,11,5): (1,10,5) 3.59338 (1,11,4) -2.40179 (1,11,6) 0.370975 (1,12,5) -2.58251
(1,11,6): (1,10,6) 2.04498 (1,11,5) -0.370975 (1,11,7) -0.368033 (1,12,6) -2.63502
(1,11,7): (1,10,7) 3.59320 (1,11,6) 0.368033 (1,11,8) -2.39260 (1,12,7) -2.58340
(1,11,8): (1,10,8) 0.185186 (1,11,7) 2.39260 (1,11,9) -1.53624 (1,12,8) -1.20031
(1,11,9): (1,10,9) -0.118868 (1,11,8) 1.53624 (1,11,10) -0.655828 (1,12,9) -0.477489
(1,11,10): (1,10,10) -7.635017E-02 (1,11,9) 0.655828 (1,12,10) -0.209433
(1,12,1): (1,11,1) 6.368630E-02 (1,12,2) 0.176923 (1,13,1) -6.719501E-02
(1,12,2): (1,11,2) 0.163358 (1,12,1) -0.176923 (1,12,3) 0.453913 (1,13,2) -0.160389
(1,12,3): (1,11,3) 0.464172 (1,12,2) -0.453913 (1,12,4) 0.832845 (1,13,3) -0.409157
(1,12,4): (1,11,4) 1.19672 (1,12,3) -0.832845 (1,12,5) 1.01822 (1,13,4) -0.892001
(1,12,5): (1,11,5) 2.58251 (1,12,4) -1.01822 (1,12,6) 0.319359 (1,13,5) -1.52251
(1,12,6): (1,11,6) 2.63502 (1,12,5) -0.319359 (1,12,7) -0.317292 (1,13,6) -1.69697
(1,12,7): (1,11,7) 2.58340 (1,12,6) 0.317292 (1,12,8) -1.01185 (1,13,7) -1.52348
(1,12,8): (1,11,8) 1.20031 (1,12,7) 1.01185 (1,12,9) -0.811149 (1,13,8) -0.895987
(1,12,9): (1,11,9) 0.477489 (1,12,8) 0.811149 (1,12,10) -0.387308 (1,13,9) -0.423652
(1,12,10): (1,11,10) 0.209433 (1,12,9) 0.387308 (1,13,10) -0.208373
(1,13,1): (1,12,1) 6.719501E-02 (1,13,2) 8.371349E-02 (1,14,1) -4.015940E-02
(1,13,2): (1,12,2) 0.160389 (1,13,1) -8.371349E-02 (1,13,3) 0.205035 (1,14,2) -9.100469E-02
(1,13,3): (1,12,3) 0.409157 (1,13,2) -0.205035 (1,13,4) 0.350276 (1,14,3) -0.218471
(1,13,4): (1,12,4) 0.892001 (1,13,3) -0.350276 (1,13,5) 0.390699 (1,14,4) -0.442824
(1,13,5): (1,12,5) 1.52251 (1,13,4) -0.390699 (1,13,6) 0.147101 (1,14,5) -0.700431
(1,13,6): (1,12,6) 1.69697 (1,13,5) -0.147101 (1,13,7) -0.145999 (1,14,6) -0.794322
(1,13,7): (1,12,7) 1.52348 (1,13,6) 0.145999 (1,13,8) -0.387362 (1,14,7) -0.701044
(1,13,8): (1,12,8) 0.895987 (1,13,7) 0.387362 (1,13,9) -0.339200 (1,14,8) -0.445315
(1,13,9): (1,12,9) 0.423652 (1,13,8) 0.339200 (1,13,10) -0.172106 (1,14,9) -0.227324
(1,13,10): (1,12,10) 0.208373 (1,13,9) 0.172106 (1,14,10) -0.119261
(1,14,1): (1,13,1) 4.015940E-02 (1,14,2) 3.287190E-02 (1,15,1) -1.629484E-02
(1,14,2): (1,13,2) 9.100469E-02 (1,14,1) -3.287190E-02 (1,14,3) 7.758534E-02 (1,15,2) -3.559737E-02
(1,14,3): (1,13,3) 0.218471 (1,14,2) -7.758534E-02 (1,14,4) 0.126128 (1,15,3) -8.217219E-02
(1,14,4): (1,13,4) 0.442824 (1,14,3) -0.126128 (1,14,5) 0.133867 (1,15,4) -0.159898
(1,14,5): (1,13,5) 0.700431 (1,14,4) -0.133867 (1,14,6) 5.379713E-02 (1,15,5) -0.244234
(1,14,6): (1,13,6) 0.794322 (1,14,5) -5.379713E-02 (1,14,7) -5.330570E-02 (1,15,6) -0.277622
(1,14,7): (1,13,7) 0.701044 (1,14,6) 5.330570E-02 (1,14,8) -0.132413 (1,15,7) -0.244495
(1,14,8): (1,13,8) 0.445315 (1,14,7) 0.132413 (1,14,9) -0.121436 (1,15,8) -0.160945
(1,14,9): (1,13,9) 0.227324 (1,14,8) 0.121436 (1,14,10) -6.410241E-02 (1,15,9) -8.581796E-02
(1,14,10): (1,13,10) 0.119261 (1,14,9) 6.410241E-02 (1,15,10) -4.692242E-02
(1,15,1): (1,14,1) 1.629484E-02 (1,15,2) 1.356990E-02
(1,15,2): (1,14,2) 3.559737E-02 (1,15,1) -1.356990E-02 (1,15,3) 3.101265E-02
(1,15,3): (1,14,3) 8.217219E-02 (1,15,2) -3.101265E-02 (1,15,4) 4.842754E-02
(1,15,4): (1,14,4) 0.159898 (1,15,3) -4.842754E-02 (1,15,5) 4.962302E-02
(1,15,5): (1,14,5) 0.244234 (1,15,4) -4.962302E-02 (1,15,6) 2.048305E-02
(1,15,6): (1,14,6) 0.277622 (1,15,5) -2.048305E-02 (1,15,7) -2.025135E-02
(1,15,7): (1,14,7) 0.244495 (1,15,6) 2.025135E-02 (1,15,8) -4.895594E-02
(1,15,8): (1,14,8) 0.160945 (1,15,7) 4.895594E-02 (1,15,9) -4.633844E-02
(1,15,9): (1,14,9) 8.581796E-02 (1,15,8) 4.633844E-02 (1,15,10) -2.521530E-02
(1,15,10): (1,14,10) 4.692242E-02 (1,15,9) 2.521530E-02

 WEL PACKAGE (WEL-1) FLOW RATES   PERIOD      2   STEP       41
 ----------------------------------------------------------------------------------------
   NUMBER   CELLID                    RATE       NAME                                    
 ----------------------------------------------------------------------------------------
     1      (1,8,6)              -212.12971      WEL                                     
 ----------------------------------------------------------------------------------------




 API PACKAGE (MAR) FLOW RATES   PERIOD      2   STEP       41
 -----------------------------------------------
   NUMBER   CELLID                    RATE      
 -----------------------------------------------
     1      (1,6,5)               46.666667     
     2      (1,6,6)               46.666667     
     3      (1,6,7)               46.666667     
     4      (1,10,5)              24.043236     
     5      (1,10,6)              24.043236     
     6      (1,10,7)              24.043236     
 -----------------------------------------------



1
  HEAD IN LAYER   1 AT END OF TIME STEP  41 IN STRESS PERIOD    2
  ---------------------------------------------------------------------------

            1           2           3           4           5           6           7           8           9          10
 ........................................................................................................................
   1   1.4351E-03  2.9596E-03  6.4789E-03  1.2057E-02  1.7872E-02  2.0285E-02  1.7897E-02  1.2156E-02  6.8084E-03  3.9338E-03
   2   3.2730E-03  7.0368E-03  1.6069E-02  3.1127E-02  4.7596E-02  5.4276E-02  4.7650E-02  3.1342E-02  1.6806E-02  9.2925E-03
   3   7.8815E-03  1.7726E-02  4.2470E-02  8.6432E-02  0.1379      0.1577      0.1380      8.6924E-02  4.4207E-02  2.3235E-02
   4   1.5862E-02  3.7526E-02  9.5374E-02  0.2080      0.3561      0.4053      0.3563      0.2089      9.8778E-02  4.8753E-02
   5   2.4135E-02  6.0407E-02  0.1660      0.4045      0.8025      0.8895      0.8028      0.4058      0.1710      7.7664E-02
   6   2.3063E-02  5.9853E-02  0.1810      0.5436       1.631       1.640       1.631      0.5448      0.1857      7.6349E-02
   7   5.7645E-03  5.2376E-03 -1.2328E-02 -0.1047     -0.4346      -1.559     -0.4344     -0.1041     -1.0709E-02  8.6388E-03
   8  -6.6198E-03 -3.4842E-02 -0.1593     -0.6252      -2.259      -8.597      -2.259     -0.6252     -0.1600     -4.0921E-02
   9   2.5297E-03 -5.2359E-03 -4.9641E-02 -0.2224     -0.7308      -1.920     -0.7306     -0.2220     -4.8615E-02 -4.3128E-03
  10   1.7743E-02  4.1676E-02  0.1109      0.2929      0.8351      0.7293      0.8354      0.2939      0.1147      5.4101E-02
  11   2.0005E-02  4.7544E-02  0.1222      0.2748      0.5035      0.5387      0.5037      0.2760      0.1265      6.1689E-02
  12   1.3649E-02  3.1286E-02  7.6333E-02  0.1583      0.2576      0.2886      0.2578      0.1591      7.9300E-02  4.0874E-02
  13   6.9385E-03  1.5297E-02  3.5728E-02  7.0510E-02  0.1092      0.1237      0.1093      7.0949E-02  3.7268E-02  2.0121E-02
  14   2.9254E-03  6.2105E-03  1.3958E-02  2.6538E-02  3.9871E-02  4.5227E-02  3.9920E-02  2.6731E-02  1.4620E-02  8.2193E-03
  15   1.2963E-03  2.6530E-03  5.7525E-03  1.0590E-02  1.5545E-02  1.7589E-02  1.5568E-02  1.0680E-02  6.0509E-03  3.5309E-03

 HEAD WILL BE SAVED ON UNIT 1043 AT END OF TIME STEP   41, STRESS PERIOD    2


  VOLUME BUDGET FOR ENTIRE MODEL AT END OF TIME STEP   41, STRESS PERIOD   2
  ---------------------------------------------------------------------------------------------------

     CUMULATIVE VOLUME      L**3       RATES FOR THIS TIME STEP      L**3/T          PACKAGE NAME    
     ------------------                 ------------------------                     ----------------

           IN:                                      IN:
           ---                                      ---
              STO-SS =          19.0656                STO-SS =       2.3435E-02     STORAGE                          
              STO-SY =       47012.5409                STO-SY =          48.8472     STORAGE                          
                 WEL =           0.0000                   WEL =           0.0000     WEL-1                            
                 API =       99778.0243                   API =         212.1297     MAR                              
                 CHD =       2.8247E-08                   CHD =           0.0000     CHD_0                            

            TOTAL IN =      146809.6308              TOTAL IN =         261.0003

          OUT:                                     OUT:
          ----                                     ----
              STO-SS =          24.4569                STO-SS =       2.5046E-02     STORAGE                          
              STO-SY =       47007.1496                STO-SY =          48.8456     STORAGE                          
                 WEL =       99778.0243                   WEL =         212.1297     WEL-1                            
                 API =           0.0000                   API =           0.0000     MAR                              
                 CHD =       3.0388E-08                   CHD =           0.0000     CHD_0                            

           TOTAL OUT =      146809.6308             TOTAL OUT =         261.0003

            IN - OUT =       1.9715E-07              IN - OUT =       3.5619E-09

 PERCENT DISCREPANCY =           0.00     PERCENT DISCREPANCY =           0.00




         TIME SUMMARY AT END OF TIME STEP   41 IN STRESS PERIOD    2
                    SECONDS     MINUTES      HOURS       DAYS        YEARS
                    -----------------------------------------------------------
   TIME STEP LENGTH 8.64000E+05  14400.      240.00      10.000     2.73785E-02
 STRESS PERIOD TIME 3.54240E+07 5.90400E+05  9840.0      410.00      1.1225    
         TOTAL TIME 3.55104E+07 5.91840E+05  9864.0      411.00      1.1253    


end timestep


start timestep kper="2" kstp="42" mode="normal"

 UBDSV1 SAVING           STO-SS ON UNIT   1042 AT TIME STEP     42, STRESS PERIOD      2
 UBDSV1 SAVING           STO-SY ON UNIT   1042 AT TIME STEP     42, STRESS PERIOD      2
 UBDSV1 SAVING     FLOW-JA-FACE ON UNIT   1042 AT TIME STEP     42, STRESS PERIOD      2
 UBDSV06 SAVING       DATA-SPDIS IN MODEL GWF              PACKAGE NPF             CONNECTED TO MODEL GWF              PACKAGE NPF              ON UNIT   1042 AT TIME STEP     42, STRESS PERIOD      2
 UBDSV06 SAVING              WEL IN MODEL GWF              PACKAGE GWF             CONNECTED TO MODEL GWF              PACKAGE WEL-1            ON UNIT   1042 AT TIME STEP     42, STRESS PERIOD      2
 UBDSV06 SAVING              API IN MODEL GWF              PACKAGE GWF             CONNECTED TO MODEL GWF              PACKAGE MAR              ON UNIT   1042 AT TIME STEP     42, STRESS PERIOD      2
 UBDSV06 SAVING              CHD IN MODEL GWF              PACKAGE GWF             CONNECTED TO MODEL GWF              PACKAGE CHD_0            ON UNIT   1042 AT TIME STEP     42, STRESS PERIOD      2

    CALCULATED INTERCELL FLOW FOR PERIOD 2 STEP 42
(1,1,1): (1,1,2) 1.667656E-02 (1,2,1) 2.004736E-02
(1,1,2): (1,1,1) -1.667656E-02 (1,1,3) 3.812985E-02 (1,2,2) 4.379955E-02
(1,1,3): (1,1,2) -3.812985E-02 (1,1,4) 5.982261E-02 (1,2,3) 0.101785
(1,1,4): (1,1,3) -5.982261E-02 (1,1,5) 6.188437E-02 (1,2,4) 0.200706
(1,1,5): (1,1,4) -6.188437E-02 (1,1,6) 2.566871E-02 (1,2,5) 0.311390
(1,1,6): (1,1,5) -2.566871E-02 (1,1,7) -2.537015E-02 (1,2,6) 0.355821
(1,1,7): (1,1,6) 2.537015E-02 (1,1,8) -6.103989E-02 (1,2,7) 0.311719
(1,1,8): (1,1,7) 6.103989E-02 (1,1,9) -5.721332E-02 (1,2,8) 0.202012
(1,1,9): (1,1,8) 5.721332E-02 (1,1,10) -3.096093E-02 (1,2,9) 0.106287
(1,1,10): (1,1,9) 3.096093E-02 (1,2,10) 5.770968E-02
(1,2,1): (1,1,1) -2.004736E-02 (1,2,2) 4.042795E-02 (1,3,1) 4.957370E-02
(1,2,2): (1,1,2) -4.379955E-02 (1,2,1) -4.042795E-02 (1,2,3) 9.611236E-02 (1,3,2) 0.113279
(1,2,3): (1,1,3) -0.101785 (1,2,2) -9.611236E-02 (1,2,4) 0.158702 (1,3,3) 0.276850
(1,2,4): (1,1,4) -0.200706 (1,2,3) -0.158702 (1,2,5) 0.172416 (1,3,4) 0.576806
(1,2,5): (1,1,5) -0.311390 (1,2,4) -0.172416 (1,2,6) 6.997449E-02 (1,3,5) 0.940937
(1,2,6): (1,1,6) -0.355821 (1,2,5) -6.997449E-02 (1,2,7) -6.934714E-02 (1,3,6) 1.07788
(1,2,7): (1,1,7) -0.311719 (1,2,6) 6.934714E-02 (1,2,8) -0.170595 (1,3,7) 0.941716
(1,2,8): (1,1,8) -0.202012 (1,2,7) 0.170595 (1,2,9) -0.152892 (1,3,8) 0.579917
(1,2,9): (1,1,9) -0.106287 (1,2,8) 0.152892 (1,2,10) -7.952508E-02 (1,3,9) 0.287793
(1,2,10): (1,1,10) -5.770968E-02 (1,2,9) 7.952508E-02 (1,3,10) 0.148181
(1,3,1): (1,2,1) -4.957370E-02 (1,3,2) 0.104128 (1,4,1) 8.436565E-02
(1,3,2): (1,2,2) -0.113279 (1,3,1) -0.104128 (1,3,3) 0.259655 (1,4,2) 0.206491
(1,3,3): (1,2,3) -0.276850 (1,3,2) -0.259655 (1,3,4) 0.458310 (1,4,3) 0.548111
(1,3,4): (1,2,4) -0.576806 (1,3,3) -0.458310 (1,3,5) 0.535123 (1,4,4) 1.26183
(1,3,5): (1,2,5) -0.940937 (1,3,4) -0.535123 (1,3,6) 0.205777 (1,4,5) 2.28618
(1,3,6): (1,2,6) -1.07788 (1,3,5) -0.205777 (1,3,7) -0.204374 (1,4,6) 2.60508
(1,3,7): (1,2,7) -0.941716 (1,3,6) 0.204374 (1,3,8) -0.530961 (1,4,7) 2.28744
(1,3,8): (1,2,8) -0.579917 (1,3,7) 0.530961 (1,3,9) -0.444629 (1,4,8) 1.26686
(1,3,9): (1,2,9) -0.287793 (1,3,8) 0.444629 (1,3,10) -0.219042 (1,4,9) 0.566242
(1,3,10): (1,2,10) -0.148181 (1,3,9) 0.219042 (1,4,10) 0.267021
(1,4,1): (1,3,1) -8.436565E-02 (1,4,2) 0.226277 (1,5,1) 8.534891E-02
(1,4,2): (1,3,2) -0.206491 (1,4,1) -0.226277 (1,4,3) 0.601453 (1,5,2) 0.233635
(1,4,3): (1,3,3) -0.548111 (1,4,2) -0.601453 (1,4,4) 1.17142 (1,5,3) 0.722113
(1,4,4): (1,3,4) -1.26183 (1,4,3) -1.17142 (1,4,5) 1.55259 (1,5,4) 2.04759
(1,4,5): (1,3,5) -2.28618 (1,4,4) -1.55259 (1,4,6) 0.518753 (1,5,5) 4.82000
(1,4,6): (1,3,6) -2.60508 (1,4,5) -0.518753 (1,4,7) -0.516104 (1,5,6) 5.27022
(1,4,7): (1,3,7) -2.28744 (1,4,6) 0.516104 (1,4,8) -1.54461 (1,5,7) 4.82124
(1,4,8): (1,3,8) -1.26686 (1,4,7) 1.54461 (1,4,9) -1.14444 (1,5,8) 2.05231
(1,4,9): (1,3,9) -0.566242 (1,4,8) 1.14444 (1,4,10) -0.518123 (1,5,9) 0.739618
(1,4,10): (1,3,10) -0.267021 (1,4,9) 0.518123 (1,5,10) 0.296241
(1,5,1): (1,4,1) -8.534891E-02 (1,5,2) 0.374769 (1,6,1) -1.412883E-02
(1,5,2): (1,4,2) -0.233635 (1,5,1) -0.374769 (1,5,3) 1.09167 (1,6,2) -1.351041E-02
(1,5,3): (1,4,3) -0.722113 (1,5,2) -1.09167 (1,5,4) 2.50239 (1,6,3) 0.133421
(1,5,4): (1,4,4) -2.04759 (1,5,3) -2.50239 (1,5,5) 4.31332 (1,6,4) 1.42999
(1,5,5): (1,4,5) -4.82000 (1,5,4) -4.31332 (1,5,6) 0.954022 (1,6,5) 9.58328
(1,5,6): (1,4,6) -5.27022 (1,5,5) -0.954022 (1,5,7) -0.950162 (1,6,6) 8.67482
(1,5,7): (1,4,7) -4.82124 (1,5,6) 0.950162 (1,5,8) -4.30157 (1,6,7) 9.58322
(1,5,8): (1,4,8) -2.05231 (1,5,7) 4.30157 (1,5,9) -2.46203 (1,6,8) 1.42907
(1,5,9): (1,4,9) -0.739618 (1,5,8) 2.46203 (1,5,10) -0.962448 (1,6,9) 0.129907
(1,5,10): (1,4,10) -0.296241 (1,5,9) 0.962448 (1,6,10) -2.365244E-02
(1,6,1): (1,5,1) 1.412883E-02 (1,6,2) 0.375390 (1,7,1) -0.181639
(1,6,2): (1,5,2) 1.351041E-02 (1,6,1) -0.375390 (1,6,3) 1.24017 (1,7,2) -0.566427
(1,6,3): (1,5,3) -0.133421 (1,6,2) -1.24017 (1,6,4) 3.82680 (1,7,3) -2.00357
(1,6,4): (1,5,4) -1.42999 (1,6,3) -3.82680 (1,6,5) 12.6479 (1,7,4) -6.89610
(1,6,5): (1,5,5) -9.58328 (1,6,4) -12.6479 (1,6,6) 0.103475 (1,7,5) -24.1062
(1,6,6): (1,5,6) -8.67482 (1,6,5) -0.103475 (1,6,7) -9.967982E-02 (1,7,6) -37.3079
(1,6,7): (1,5,7) -9.58322 (1,6,6) 9.967982E-02 (1,6,8) -12.6363 (1,7,7) -24.1085
(1,6,8): (1,5,8) -1.42907 (1,6,7) 12.6363 (1,6,9) -3.78865 (1,7,8) -6.90462
(1,6,9): (1,5,9) -0.129907 (1,6,8) 3.78865 (1,6,10) -1.11747 (1,7,9) -2.03826
(1,6,10): (1,5,10) 2.365244E-02 (1,6,9) 1.11747 (1,7,10) -0.704958
(1,7,1): (1,6,1) 0.181639 (1,7,2) -8.674214E-03 (1,8,1) -0.129507
(1,7,2): (1,6,2) 0.566427 (1,7,1) 8.674214E-03 (1,7,3) -0.186797 (1,8,2) -0.412886
(1,7,3): (1,6,3) 2.00357 (1,7,2) 0.186797 (1,7,4) -0.941569 (1,8,3) -1.49434
(1,7,4): (1,6,4) 6.89610 (1,7,3) 0.941569 (1,7,5) -3.27483 (1,8,4) -5.19642
(1,7,5): (1,6,5) 24.1062 (1,7,4) 3.27483 (1,7,6) -10.7418 (1,8,5) -17.4965
(1,7,6): (1,6,6) 37.3079 (1,7,5) 10.7418 (1,7,7) 10.7438 (1,8,6) -59.3840
(1,7,7): (1,6,7) 24.1085 (1,7,6) -10.7438 (1,7,8) 3.27938 (1,8,7) -17.4980
(1,7,8): (1,6,8) 6.90462 (1,7,7) -3.27938 (1,7,9) 0.952509 (1,8,8) -5.20219
(1,7,9): (1,6,9) 2.03826 (1,7,8) -0.952509 (1,7,10) 0.204495 (1,8,9) -1.51856
(1,7,10): (1,6,10) 0.704958 (1,7,9) -0.204495 (1,8,10) -0.511765
(1,8,1): (1,7,1) 0.129507 (1,8,2) -0.291711 (1,9,1) 9.384711E-02
(1,8,2): (1,7,2) 0.412886 (1,8,1) 0.291711 (1,8,3) -1.26580 (1,9,2) 0.298941
(1,8,3): (1,7,3) 1.49434 (1,8,2) 1.26580 (1,8,4) -4.62286 (1,9,3) 1.09208
(1,8,4): (1,7,4) 5.19642 (1,8,3) 4.62286 (1,8,5) -15.3215 (1,9,4) 3.92146
(1,8,5): (1,7,5) 17.4965 (1,8,4) 15.3215 (1,8,6) -48.9498 (1,9,5) 14.0870
(1,8,6): (1,7,6) 59.3840 (1,8,5) 48.9498 (1,8,7) 48.9508 (1,9,6) 53.7241
(1,8,7): (1,7,7) 17.4980 (1,8,6) -48.9508 (1,8,8) 15.3217 (1,9,7) 14.0880
(1,8,8): (1,7,8) 5.20219 (1,8,7) -15.3217 (1,8,9) 4.61496 (1,9,8) 3.92552
(1,8,9): (1,7,9) 1.51856 (1,8,8) -4.61496 (1,8,10) 1.20819 (1,9,9) 1.10950
(1,8,10): (1,7,10) 0.511765 (1,8,9) -1.20819 (1,9,10) 0.370396
(1,9,1): (1,8,1) -9.384711E-02 (1,9,2) -8.663130E-02 (1,10,1) 0.158740
(1,9,2): (1,8,2) -0.298941 (1,9,1) 8.663130E-02 (1,9,3) -0.471286 (1,10,2) 0.482680
(1,9,3): (1,8,3) -1.09208 (1,9,2) 0.471286 (1,9,4) -1.77349 (1,10,3) 1.64240
(1,9,4): (1,8,4) -3.92146 (1,9,3) 1.77349 (1,9,5) -5.02886 (1,10,4) 5.31881
(1,9,5): (1,8,5) -14.0870 (1,9,4) 5.02886 (1,9,6) -11.0179 (1,10,5) 16.9234
(1,9,6): (1,8,6) -53.7241 (1,9,5) 11.0179 (1,9,7) 11.0195 (1,10,6) 28.3407
(1,9,7): (1,8,7) -14.0880 (1,9,6) -11.0195 (1,9,8) 5.03223 (1,10,7) 16.9252
(1,9,8): (1,8,8) -3.92552 (1,9,7) -5.03223 (1,9,9) 1.77938 (1,10,8) 5.32611
(1,9,9): (1,8,9) -1.10950 (1,9,8) -1.77938 (1,9,10) 0.468357 (1,10,9) 1.67276
(1,9,10): (1,8,10) -0.370396 (1,9,9) -0.468357 (1,10,10) 0.603137
(1,10,1): (1,9,1) -0.158740 (1,10,2) 0.236594 (1,11,1) 2.685266E-02
(1,10,2): (1,9,2) -0.482680 (1,10,1) -0.236594 (1,10,3) 0.679762 (1,11,2) 6.963290E-02
(1,10,3): (1,9,3) -1.64240 (1,10,2) -0.679762 (1,10,4) 1.81385 (1,11,3) 0.142766
(1,10,4): (1,9,4) -5.31881 (1,10,3) -1.81385 (1,10,5) 5.76007 (1,11,4) -0.121122
(1,10,5): (1,9,5) -16.9234 (1,10,4) -5.76007 (1,10,6) -1.17568 (1,11,5) -3.45836
(1,10,6): (1,9,6) -28.3407 (1,10,5) 1.17568 (1,10,7) 1.17871 (1,11,6) -1.89897
(1,10,7): (1,9,7) -16.9252 (1,10,6) -1.17871 (1,10,8) -5.75104 (1,11,7) -3.45814
(1,10,8): (1,9,8) -5.32611 (1,10,7) 5.75104 (1,10,9) -1.78464 (1,11,8) -0.119835
(1,10,9): (1,9,9) -1.67276 (1,10,8) 1.78464 (1,10,10) -0.592202 (1,11,9) 0.148193
(1,10,10): (1,9,10) -0.603137 (1,10,9) 0.592202 (1,11,10) 9.011386E-02
(1,11,1): (1,10,1) -2.685266E-02 (1,11,2) 0.279463 (1,12,1) -6.430747E-02
(1,11,2): (1,10,2) -6.963290E-02 (1,11,1) -0.279463 (1,11,3) 0.753327 (1,12,2) -0.161692
(1,11,3): (1,10,3) -0.142766 (1,11,2) -0.753327 (1,11,4) 1.54591 (1,12,3) -0.453231
(1,11,4): (1,10,4) 0.121122 (1,11,3) -1.54591 (1,11,5) 2.35731 (1,12,4) -1.16184
(1,11,5): (1,10,5) 3.45836 (1,11,4) -2.35731 (1,11,6) 0.354808 (1,12,5) -2.50992
(1,11,6): (1,10,6) 1.89897 (1,11,5) -0.354808 (1,11,7) -0.351579 (1,12,6) -2.54930
(1,11,7): (1,10,7) 3.45814 (1,11,6) 0.351579 (1,11,8) -2.34745 (1,12,7) -2.51086
(1,11,8): (1,10,8) 0.119835 (1,11,7) 2.34745 (1,11,9) -1.51258 (1,12,8) -1.16558
(1,11,9): (1,10,9) -0.148193 (1,11,8) 1.51258 (1,11,10) -0.650563 (1,12,9) -0.466835
(1,11,10): (1,10,10) -9.011386E-02 (1,11,9) 0.650563 (1,12,10) -0.207860
(1,12,1): (1,11,1) 6.430747E-02 (1,12,2) 0.181965 (1,13,1) -7.025442E-02
(1,12,2): (1,11,2) 0.161692 (1,12,1) -0.181965 (1,12,3) 0.460937 (1,13,2) -0.164553
(1,12,3): (1,11,3) 0.453231 (1,12,2) -0.460937 (1,12,4) 0.834739 (1,13,3) -0.413305
(1,12,4): (1,11,4) 1.16184 (1,12,3) -0.834739 (1,12,5) 1.01107 (1,13,4) -0.890755
(1,12,5): (1,11,5) 2.50992 (1,12,4) -1.01107 (1,12,6) 0.316049 (1,13,5) -1.50996
(1,12,6): (1,11,6) 2.54930 (1,12,5) -0.316049 (1,12,7) -0.313749 (1,13,6) -1.67965
(1,12,7): (1,11,7) 2.51086 (1,12,6) 0.313749 (1,12,8) -1.00412 (1,13,7) -1.51103
(1,12,8): (1,11,8) 1.16558 (1,12,7) 1.00412 (1,12,9) -0.811560 (1,13,8) -0.895043
(1,12,9): (1,11,9) 0.466835 (1,12,8) 0.811560 (1,12,10) -0.391126 (1,13,9) -0.428623
(1,12,10): (1,11,10) 0.207860 (1,12,9) 0.391126 (1,13,10) -0.214373
(1,13,1): (1,12,1) 7.025442E-02 (1,13,2) 8.765026E-02 (1,14,1) -4.289847E-02
(1,13,2): (1,12,2) 0.164553 (1,13,1) -8.765026E-02 (1,13,3) 0.212069 (1,14,2) -9.548040E-02
(1,13,3): (1,12,3) 0.413305 (1,13,2) -0.212069 (1,13,4) 0.357546 (1,14,3) -0.225740
(1,13,4): (1,12,4) 0.890755 (1,13,3) -0.357546 (1,13,5) 0.394758 (1,14,4) -0.452150
(1,13,5): (1,12,5) 1.50996 (1,13,4) -0.394758 (1,13,6) 0.148488 (1,14,5) -0.709667
(1,13,6): (1,12,6) 1.67965 (1,13,5) -0.148488 (1,13,7) -0.147243 (1,14,6) -0.803327
(1,13,7): (1,12,7) 1.51103 (1,13,6) 0.147243 (1,13,8) -0.391064 (1,14,7) -0.710350
(1,13,8): (1,12,8) 0.895043 (1,13,7) 0.391064 (1,13,9) -0.345514 (1,14,8) -0.454885
(1,13,9): (1,12,9) 0.428623 (1,13,8) 0.345514 (1,13,10) -0.176955 (1,14,9) -0.235293
(1,13,10): (1,12,10) 0.214373 (1,13,9) 0.176955 (1,14,10) -0.125458
(1,14,1): (1,13,1) 4.289847E-02 (1,14,2) 3.507243E-02 (1,15,1) -1.768614E-02
(1,14,2): (1,13,2) 9.548040E-02 (1,14,1) -3.507243E-02 (1,14,3) 8.182711E-02 (1,15,2) -3.798156E-02
(1,14,3): (1,13,3) 0.225740 (1,14,2) -8.182711E-02 (1,14,4) 0.131346 (1,15,3) -8.639979E-02
(1,14,4): (1,13,4) 0.452150 (1,14,3) -0.131346 (1,14,5) 0.138029 (1,15,4) -0.166217
(1,14,5): (1,13,5) 0.709667 (1,14,4) -0.138029 (1,14,6) 5.541876E-02 (1,15,5) -0.251999
(1,14,6): (1,13,6) 0.803327 (1,14,5) -5.541876E-02 (1,14,7) -5.485384E-02 (1,15,6) -0.285918
(1,14,7): (1,13,7) 0.710350 (1,14,6) 5.485384E-02 (1,14,8) -0.136392 (1,15,7) -0.252294
(1,14,8): (1,13,8) 0.454885 (1,14,7) 0.136392 (1,14,9) -0.126158 (1,15,8) -0.167382
(1,14,9): (1,13,9) 0.235293 (1,14,8) 0.126158 (1,14,10) -6.718329E-02 (1,15,9) -9.039476E-02
(1,14,10): (1,13,10) 0.125458 (1,14,9) 6.718329E-02 (1,15,10) -5.019062E-02
(1,15,1): (1,14,1) 1.768614E-02 (1,15,2) 1.477760E-02
(1,15,2): (1,14,2) 3.798156E-02 (1,15,1) -1.477760E-02 (1,15,3) 3.341108E-02
(1,15,3): (1,14,3) 8.639979E-02 (1,15,2) -3.341108E-02 (1,15,4) 5.155649E-02
(1,15,4): (1,14,4) 0.166217 (1,15,3) -5.155649E-02 (1,15,5) 5.234314E-02
(1,15,5): (1,14,5) 0.251999 (1,15,4) -5.234314E-02 (1,15,6) 2.157712E-02
(1,15,6): (1,14,6) 0.285918 (1,15,5) -2.157712E-02 (1,15,7) -2.130591E-02
(1,15,7): (1,14,7) 0.252294 (1,15,6) 2.130591E-02 (1,15,8) -5.157759E-02
(1,15,8): (1,14,8) 0.167382 (1,15,7) 5.157759E-02 (1,15,9) -4.920173E-02
(1,15,9): (1,14,9) 9.039476E-02 (1,15,8) 4.920173E-02 (1,15,10) -2.698845E-02
(1,15,10): (1,14,10) 5.019062E-02 (1,15,9) 2.698845E-02

 WEL PACKAGE (WEL-1) FLOW RATES   PERIOD      2   STEP       42
 ----------------------------------------------------------------------------------------
   NUMBER   CELLID                    RATE       NAME                                    
 ----------------------------------------------------------------------------------------
     1      (1,8,6)              -211.61483      WEL                                     
 ----------------------------------------------------------------------------------------




 API PACKAGE (MAR) FLOW RATES   PERIOD      2   STEP       42
 -----------------------------------------------
   NUMBER   CELLID                    RATE      
 -----------------------------------------------
     1      (1,6,5)               46.666667     
     2      (1,6,6)               46.666667     
     3      (1,6,7)               46.666667     
     4      (1,10,5)              23.871610     
     5      (1,10,6)              23.871610     
     6      (1,10,7)              23.871610     
 -----------------------------------------------



1
  HEAD IN LAYER   1 AT END OF TIME STEP  42 IN STRESS PERIOD    2
  ---------------------------------------------------------------------------

            1           2           3           4           5           6           7           8           9          10
 ........................................................................................................................
   1   1.6186E-03  3.2857E-03  7.0960E-03  1.3070E-02  1.9247E-02  2.1808E-02  1.9277E-02  1.3185E-02  7.4707E-03  4.3769E-03
   2   3.6226E-03  7.6623E-03  1.7257E-02  3.3075E-02  5.0230E-02  5.7188E-02  5.0293E-02  3.3319E-02  1.8080E-02  1.0142E-02
   3   8.5757E-03  1.8969E-02  4.4818E-02  9.0240E-02  0.1430      0.1632      0.1431      9.0789E-02  4.6726E-02  2.4923E-02
   4   1.6998E-02  3.9537E-02  9.9092E-02  0.2138      0.3636      0.4134      0.3638      0.2148      0.1028      5.1489E-02
   5   2.5511E-02  6.2754E-02  0.1701      0.4105      0.8095      0.8970      0.8099      0.4119      0.1755      8.0875E-02
   6   2.4102E-02  6.1412E-02  0.1832      0.5461       1.633       1.642       1.634      0.5474      0.1882      7.8529E-02
   7   5.9816E-03  5.1147E-03 -1.3555E-02 -0.1078     -0.4389      -1.562     -0.4387     -0.1072     -1.1850E-02  8.5824E-03
   8  -6.9614E-03 -3.6153E-02 -0.1632     -0.6331      -2.269      -8.600      -2.269     -0.6331     -0.1639     -4.2550E-02
   9   2.4211E-03 -6.2400E-03 -5.3398E-02 -0.2317     -0.7465      -1.937     -0.7464     -0.2312     -5.2352E-02 -5.4903E-03
  10   1.8266E-02  4.1827E-02  0.1091      0.2854      0.8179      0.7092      0.8182      0.2865      0.1131      5.4496E-02
  11   2.0946E-02  4.8756E-02  0.1232      0.2736      0.4982      0.5319      0.4985      0.2749      0.1277      6.3451E-02
  12   1.4529E-02  3.2666E-02  7.8401E-02  0.1606      0.2591      0.2898      0.2593      0.1615      8.1592E-02  4.2796E-02
  13   7.5133E-03  1.6264E-02  3.7392E-02  7.2888E-02  0.1119      0.1266      0.1120      7.3377E-02  3.9077E-02  2.1450E-02
  14   3.2266E-03  6.7315E-03  1.4902E-02  2.8000E-02  4.1745E-02  4.7261E-02  4.1802E-02  2.8219E-02  1.5639E-02  8.9312E-03
  15   1.4586E-03  2.9359E-03  6.2749E-03  1.1425E-02  1.6650E-02  1.8804E-02  1.6677E-02  1.1528E-02  6.6137E-03  3.9166E-03

 HEAD WILL BE SAVED ON UNIT 1043 AT END OF TIME STEP   42, STRESS PERIOD    2


  VOLUME BUDGET FOR ENTIRE MODEL AT END OF TIME STEP   42, STRESS PERIOD   2
  ---------------------------------------------------------------------------------------------------

     CUMULATIVE VOLUME      L**3       RATES FOR THIS TIME STEP      L**3/T          PACKAGE NAME    
     ------------------                 ------------------------                     ----------------

           IN:                                      IN:
           ---                                      ---
              STO-SS =          19.2955                STO-SS =       2.2990E-02     STORAGE                          
              STO-SY =       47491.4888                STO-SY =          47.8948     STORAGE                          
                 WEL =           0.0000                   WEL =           0.0000     WEL-1                            
                 API =      101894.1726                   API =         211.6148     MAR                              
                 CHD =       2.8247E-08                   CHD =           0.0000     CHD_0                            

            TOTAL IN =      149404.9569              TOTAL IN =         259.5326

          OUT:                                     OUT:
          ----                                     ----
              STO-SS =          24.7025                STO-SS =       2.4555E-02     STORAGE                          
              STO-SY =       47486.0819                STO-SY =          47.8932     STORAGE                          
                 WEL =      101894.1726                   WEL =         211.6148     WEL-1                            
                 API =           0.0000                   API =           0.0000     MAR                              
                 CHD =       3.0388E-08                   CHD =           0.0000     CHD_0                            

           TOTAL OUT =      149404.9569             TOTAL OUT =         259.5326

            IN - OUT =       2.3327E-07              IN - OUT =       3.6142E-09

 PERCENT DISCREPANCY =           0.00     PERCENT DISCREPANCY =           0.00




         TIME SUMMARY AT END OF TIME STEP   42 IN STRESS PERIOD    2
                    SECONDS     MINUTES      HOURS       DAYS        YEARS
                    -----------------------------------------------------------
   TIME STEP LENGTH 8.64000E+05  14400.      240.00      10.000     2.73785E-02
 STRESS PERIOD TIME 3.62880E+07 6.04800E+05  10080.      420.00      1.1499    
         TOTAL TIME 3.63744E+07 6.06240E+05  10104.      421.00      1.1526    


end timestep


start timestep kper="2" kstp="43" mode="normal"

 UBDSV1 SAVING           STO-SS ON UNIT   1042 AT TIME STEP     43, STRESS PERIOD      2
 UBDSV1 SAVING           STO-SY ON UNIT   1042 AT TIME STEP     43, STRESS PERIOD      2
 UBDSV1 SAVING     FLOW-JA-FACE ON UNIT   1042 AT TIME STEP     43, STRESS PERIOD      2
 UBDSV06 SAVING       DATA-SPDIS IN MODEL GWF              PACKAGE NPF             CONNECTED TO MODEL GWF              PACKAGE NPF              ON UNIT   1042 AT TIME STEP     43, STRESS PERIOD      2
 UBDSV06 SAVING              WEL IN MODEL GWF              PACKAGE GWF             CONNECTED TO MODEL GWF              PACKAGE WEL-1            ON UNIT   1042 AT TIME STEP     43, STRESS PERIOD      2
 UBDSV06 SAVING              API IN MODEL GWF              PACKAGE GWF             CONNECTED TO MODEL GWF              PACKAGE MAR              ON UNIT   1042 AT TIME STEP     43, STRESS PERIOD      2
 UBDSV06 SAVING              CHD IN MODEL GWF              PACKAGE GWF             CONNECTED TO MODEL GWF              PACKAGE CHD_0            ON UNIT   1042 AT TIME STEP     43, STRESS PERIOD      2

    CALCULATED INTERCELL FLOW FOR PERIOD 2 STEP 43
(1,1,1): (1,1,2) 1.817212E-02 (1,2,1) 2.178028E-02
(1,1,2): (1,1,1) -1.817212E-02 (1,1,3) 4.115597E-02 (1,2,2) 4.687219E-02
(1,1,3): (1,1,2) -4.115597E-02 (1,1,4) 6.390594E-02 (1,2,3) 0.107562
(1,1,4): (1,1,3) -6.390594E-02 (1,1,5) 6.558949E-02 (1,2,4) 0.210095
(1,1,5): (1,1,4) -6.558949E-02 (1,1,6) 2.718151E-02 (1,2,5) 0.323997
(1,1,6): (1,1,5) -2.718151E-02 (1,1,7) -2.683331E-02 (1,2,6) 0.369724
(1,1,7): (1,1,6) 2.683331E-02 (1,1,8) -6.462315E-02 (1,2,7) 0.324369
(1,1,8): (1,1,7) 6.462315E-02 (1,1,9) -6.097067E-02 (1,2,8) 0.211548
(1,1,9): (1,1,8) 6.097067E-02 (1,1,10) -3.322044E-02 (1,2,9) 0.112495
(1,1,10): (1,1,9) 3.322044E-02 (1,2,10) 6.189235E-02
(1,2,1): (1,1,1) -2.178028E-02 (1,2,2) 4.326313E-02 (1,3,1) 5.311640E-02
(1,2,2): (1,1,2) -4.687219E-02 (1,2,1) -4.326313E-02 (1,2,3) 0.101843 (1,3,2) 0.119524
(1,2,3): (1,1,3) -0.107562 (1,2,2) -0.101843 (1,2,4) 0.166394 (1,3,3) 0.288457
(1,2,4): (1,1,4) -0.210095 (1,2,3) -0.166394 (1,2,5) 0.179329 (1,3,4) 0.595360
(1,2,5): (1,1,5) -0.323997 (1,2,4) -0.179329 (1,2,6) 7.277487E-02 (1,3,5) 0.965437
(1,2,6): (1,1,6) -0.369724 (1,2,5) -7.277487E-02 (1,2,7) -7.205554E-02 (1,3,6) 1.10473
(1,2,7): (1,1,7) -0.324369 (1,2,6) 7.205554E-02 (1,2,8) -0.177281 (1,3,7) 0.966305
(1,2,8): (1,1,8) -0.211548 (1,2,7) 0.177281 (1,2,9) -0.159973 (1,3,8) 0.598778
(1,2,9): (1,1,9) -0.112495 (1,2,8) 0.159973 (1,2,10) -8.380892E-02 (1,3,9) 0.300289
(1,2,10): (1,1,10) -6.189235E-02 (1,2,9) 8.380892E-02 (1,3,10) 0.156696
(1,3,1): (1,2,1) -5.311640E-02 (1,3,2) 0.109664 (1,4,1) 8.880335E-02
(1,3,2): (1,2,2) -0.119524 (1,3,1) -0.109664 (1,3,3) 0.270746 (1,4,2) 0.214084
(1,3,3): (1,2,3) -0.288457 (1,3,2) -0.270746 (1,3,4) 0.472930 (1,4,3) 0.561593
(1,3,4): (1,2,4) -0.595360 (1,3,3) -0.472930 (1,3,5) 0.547918 (1,4,4) 1.28208
(1,3,5): (1,2,5) -0.965437 (1,3,4) -0.547918 (1,3,6) 0.210884 (1,4,5) 2.31123
(1,3,6): (1,2,6) -1.10473 (1,3,5) -0.210884 (1,3,7) -0.209301 (1,4,6) 2.63197
(1,3,7): (1,2,7) -0.966305 (1,3,6) 0.209301 (1,3,8) -0.543312 (1,4,7) 2.31261
(1,3,8): (1,2,8) -0.598778 (1,3,7) 0.543312 (1,3,9) -0.458050 (1,4,8) 1.28751
(1,3,9): (1,2,9) -0.300289 (1,3,8) 0.458050 (1,3,10) -0.227298 (1,4,9) 0.580854
(1,3,10): (1,2,10) -0.156696 (1,3,9) 0.227298 (1,4,10) 0.277433
(1,4,1): (1,3,1) -8.880335E-02 (1,4,2) 0.234970 (1,5,1) 8.762500E-02
(1,4,2): (1,3,2) -0.214084 (1,4,1) -0.234970 (1,4,3) 0.618448 (1,5,2) 0.236725
(1,4,3): (1,3,3) -0.561593 (1,4,2) -0.618448 (1,4,4) 1.19281 (1,5,3) 0.725616
(1,4,4): (1,3,4) -1.28208 (1,4,3) -1.19281 (1,4,5) 1.57011 (1,5,4) 2.04903
(1,4,5): (1,3,5) -2.31123 (1,4,4) -1.57011 (1,4,6) 0.525623 (1,5,5) 4.81683
(1,4,6): (1,3,6) -2.63197 (1,4,5) -0.525623 (1,4,7) -0.522675 (1,5,6) 5.26571
(1,4,7): (1,3,7) -2.31261 (1,4,6) 0.522675 (1,4,8) -1.56139 (1,5,7) 4.81815
(1,4,8): (1,3,8) -1.28751 (1,4,7) 1.56139 (1,4,9) -1.16387 (1,5,8) 2.05399
(1,4,9): (1,3,9) -0.580854 (1,4,8) 1.16387 (1,4,10) -0.530570 (1,5,9) 0.743742
(1,4,10): (1,3,10) -0.277433 (1,4,9) 0.530570 (1,5,10) 0.300661
(1,5,1): (1,4,1) -8.762500E-02 (1,5,2) 0.384288 (1,6,1) -1.768459E-02
(1,5,2): (1,4,2) -0.236725 (1,5,1) -0.384288 (1,5,3) 1.10914 (1,6,2) -2.164041E-02
(1,5,3): (1,4,3) -0.725616 (1,5,2) -1.10914 (1,5,4) 2.52191 (1,6,3) 0.114533
(1,5,4): (1,4,4) -2.04903 (1,5,3) -2.52191 (1,5,5) 4.32664 (1,6,4) 1.39438
(1,5,5): (1,4,5) -4.81683 (1,5,4) -4.32664 (1,5,6) 0.959669 (1,6,5) 9.53075
(1,5,6): (1,4,6) -5.26571 (1,5,5) -0.959669 (1,5,7) -0.955425 (1,6,6) 8.61983
(1,5,7): (1,4,7) -4.81815 (1,5,6) 0.955425 (1,5,8) -4.31398 (1,6,7) 9.53064
(1,5,8): (1,4,8) -2.05399 (1,5,7) 4.31398 (1,5,9) -2.47919 (1,6,8) 1.39324
(1,5,9): (1,4,9) -0.743742 (1,5,8) 2.47919 (1,5,10) -0.974633 (1,6,9) 0.110226
(1,5,10): (1,4,10) -0.300661 (1,5,9) 0.974633 (1,6,10) -3.434758E-02
(1,6,1): (1,5,1) 1.768459E-02 (1,6,2) 0.380318 (1,7,1) -0.189945
(1,6,2): (1,5,2) 2.164041E-02 (1,6,1) -0.380318 (1,6,3) 1.24680 (1,7,2) -0.583202
(1,6,3): (1,5,3) -0.114533 (1,6,2) -1.24680 (1,6,4) 3.82968 (1,7,3) -2.03829
(1,6,4): (1,5,4) -1.39438 (1,6,3) -3.82968 (1,6,5) 12.6470 (1,7,4) -6.95445
(1,6,5): (1,5,5) -9.53075 (1,6,4) -12.6470 (1,6,6) 0.106418 (1,7,5) -24.1813
(1,6,6): (1,5,6) -8.61983 (1,6,5) -0.106418 (1,6,7) -0.102283 (1,7,6) -37.3738
(1,6,7): (1,5,7) -9.53064 (1,6,6) 0.102283 (1,6,8) -12.6347 (1,7,7) -24.1838
(1,6,8): (1,5,8) -1.39324 (1,6,7) 12.6347 (1,6,9) -3.78974 (1,7,8) -6.96358
(1,6,9): (1,5,9) -0.110226 (1,6,8) 3.78974 (1,6,10) -1.12061 (1,7,9) -2.07492
(1,6,10): (1,5,10) 3.434758E-02 (1,6,9) 1.12061 (1,7,10) -0.727406
(1,7,1): (1,6,1) 0.189945 (1,7,2) -1.215391E-02 (1,8,1) -0.135151
(1,7,2): (1,6,2) 0.583202 (1,7,1) 1.215391E-02 (1,7,3) -0.197627 (1,8,2) -0.424670
(1,7,3): (1,6,3) 2.03829 (1,7,2) 0.197627 (1,7,4) -0.959710 (1,8,3) -1.51979
(1,7,4): (1,6,4) 6.95445 (1,7,3) 0.959710 (1,7,5) -3.28343 (1,8,4) -5.24016
(1,7,5): (1,6,5) 24.1813 (1,7,4) 3.28343 (1,7,6) -10.7247 (1,8,5) -17.5439
(1,7,6): (1,6,6) 37.3738 (1,7,5) 10.7247 (1,7,7) 10.7269 (1,8,6) -59.3665
(1,7,7): (1,6,7) 24.1838 (1,7,6) -10.7269 (1,7,8) 3.28829 (1,8,7) -17.5455
(1,7,8): (1,6,8) 6.96358 (1,7,7) -3.28829 (1,7,9) 0.971048 (1,8,8) -5.24633
(1,7,9): (1,6,9) 2.07492 (1,7,8) -0.971048 (1,7,10) 0.215062 (1,8,9) -1.54531
(1,7,10): (1,6,10) 0.727406 (1,7,9) -0.215062 (1,8,10) -0.527416
(1,8,1): (1,7,1) 0.135151 (1,8,2) -0.301318 (1,9,1) 9.601305E-02
(1,8,2): (1,7,2) 0.424670 (1,8,1) 0.301318 (1,8,3) -1.29025 (1,9,2) 0.301523
(1,8,3): (1,7,3) 1.51979 (1,8,2) 1.29025 (1,8,4) -4.65889 (1,9,3) 1.09160
(1,8,4): (1,7,4) 5.24016 (1,8,3) 4.65889 (1,8,5) -15.3288 (1,9,4) 3.90305
(1,8,5): (1,7,5) 17.5439 (1,8,4) 15.3288 (1,8,6) -48.8351 (1,9,5) 14.0127
(1,8,6): (1,7,6) 59.3665 (1,8,5) 48.8351 (1,8,7) 48.8363 (1,9,6) 53.5093
(1,8,7): (1,7,7) 17.5455 (1,8,6) -48.8363 (1,8,8) 15.3290 (1,9,7) 14.0138
(1,8,8): (1,7,8) 5.24633 (1,8,7) -15.3290 (1,8,9) 4.65047 (1,9,8) 3.90731
(1,8,9): (1,7,9) 1.54531 (1,8,8) -4.65047 (1,8,10) 1.22977 (1,9,9) 1.10959
(1,8,10): (1,7,10) 0.527416 (1,8,9) -1.22977 (1,9,10) 0.374282
(1,9,1): (1,8,1) -9.601305E-02 (1,9,2) -9.580821E-02 (1,10,1) 0.165023
(1,9,2): (1,8,2) -0.301523 (1,9,1) 9.580821E-02 (1,9,3) -0.498606 (1,10,2) 0.493911
(1,9,3): (1,8,3) -1.09160 (1,9,2) 0.498606 (1,9,4) -1.82601 (1,10,3) 1.66054
(1,9,4): (1,8,4) -3.90305 (1,9,3) 1.82601 (1,9,5) -5.08400 (1,10,4) 5.33206
(1,9,5): (1,8,5) -14.0127 (1,9,4) 5.08400 (1,9,6) -11.0081 (1,10,5) 16.8809
(1,9,6): (1,8,6) -53.5093 (1,9,5) 11.0081 (1,9,7) 11.0098 (1,10,6) 28.2539
(1,9,7): (1,8,7) -14.0138 (1,9,6) -11.0098 (1,9,8) 5.08753 (1,10,7) 16.8829
(1,9,8): (1,8,8) -3.90731 (1,9,7) -5.08753 (1,9,9) 1.83178 (1,10,8) 5.33984
(1,9,9): (1,8,9) -1.10959 (1,9,8) -1.83178 (1,9,10) 0.493572 (1,10,9) 1.69242
(1,9,10): (1,8,10) -0.374282 (1,9,9) -0.493572 (1,10,10) 0.618526
(1,10,1): (1,9,1) -0.165023 (1,10,2) 0.232320 (1,11,1) 3.122256E-02
(1,10,2): (1,9,2) -0.493911 (1,10,1) -0.232320 (1,10,3) 0.659109 (1,11,2) 8.044109E-02
(1,10,3): (1,9,3) -1.66054 (1,10,2) -0.659109 (1,10,4) 1.75589 (1,11,3) 0.170799
(1,10,4): (1,9,4) -5.33206 (1,10,3) -1.75589 (1,10,5) 5.65067 (1,11,4) -5.845977E-02
(1,10,5): (1,9,5) -16.8809 (1,10,4) -5.65067 (1,10,6) -1.20304 (1,11,5) -3.33027
(1,10,6): (1,9,6) -28.2539 (1,10,5) 1.20304 (1,10,7) 1.20632 (1,11,6) -1.76097
(1,10,7): (1,9,7) -16.8829 (1,10,6) -1.20632 (1,10,8) -5.64114 (1,11,7) -3.32998
(1,10,8): (1,9,8) -5.33984 (1,10,7) 5.64114 (1,10,9) -1.72578 (1,11,8) -5.692847E-02
(1,10,9): (1,9,9) -1.69242 (1,10,8) 1.72578 (1,10,10) -0.571019 (1,11,9) 0.177156
(1,10,10): (1,9,10) -0.618526 (1,10,9) 0.571019 (1,11,10) 0.104115
(1,11,1): (1,10,1) -3.122256E-02 (1,11,2) 0.281636 (1,12,1) -6.469252E-02
(1,11,2): (1,10,2) -8.044109E-02 (1,11,1) -0.281636 (1,11,3) 0.749974 (1,12,2) -0.159536
(1,11,3): (1,10,3) -0.170799 (1,11,2) -0.749974 (1,11,4) 1.52319 (1,12,3) -0.441509
(1,11,4): (1,10,4) 5.845977E-02 (1,11,3) -1.52319 (1,11,5) 2.31385 (1,12,4) -1.12659
(1,11,5): (1,10,5) 3.33027 (1,11,4) -2.31385 (1,11,6) 0.339015 (1,12,5) -2.43862
(1,11,6): (1,10,6) 1.76097 (1,11,5) -0.339015 (1,11,7) -0.335487 (1,12,6) -2.46551
(1,11,7): (1,10,7) 3.32998 (1,11,6) 0.335487 (1,11,8) -2.30331 (1,12,7) -2.43961
(1,11,8): (1,10,8) 5.692847E-02 (1,11,7) 2.30331 (1,11,9) -1.48826 (1,12,8) -1.13046
(1,11,9): (1,10,9) -0.177156 (1,11,8) 1.48826 (1,11,10) -0.644390 (1,12,9) -0.455347
(1,11,10): (1,10,10) -0.104115 (1,11,9) 0.644390 (1,12,10) -0.205619
(1,12,1): (1,11,1) 6.469252E-02 (1,12,2) 0.186678 (1,13,1) -7.321849E-02
(1,12,2): (1,11,2) 0.159536 (1,12,1) -0.186678 (1,12,3) 0.467156 (1,13,2) -0.168378
(1,12,3): (1,11,3) 0.441509 (1,12,2) -0.467156 (1,12,4) 0.835560 (1,13,3) -0.416604
(1,12,4): (1,11,4) 1.12659 (1,12,3) -0.835560 (1,12,5) 1.00328 (1,13,4) -0.888126
(1,12,5): (1,11,5) 2.43862 (1,12,4) -1.00328 (1,12,6) 0.312495 (1,13,5) -1.49591
(1,12,6): (1,11,6) 2.46551 (1,12,5) -0.312495 (1,12,7) -0.309947 (1,13,6) -1.66079
(1,12,7): (1,11,7) 2.43961 (1,12,6) 0.309947 (1,12,8) -0.995743 (1,13,7) -1.49707
(1,12,8): (1,11,8) 1.13046 (1,12,7) 0.995743 (1,12,9) -0.810881 (1,13,8) -0.892719
(1,12,9): (1,11,9) 0.455347 (1,12,8) 0.810881 (1,12,10) -0.394205 (1,13,9) -0.432733
(1,12,10): (1,11,10) 0.205619 (1,12,9) 0.394205 (1,13,10) -0.219937
(1,13,1): (1,12,1) 7.321849E-02 (1,13,2) 9.150120E-02 (1,14,1) -4.566285E-02
(1,13,2): (1,12,2) 0.168378 (1,13,1) -9.150120E-02 (1,13,3) 0.218807 (1,14,2) -9.987338E-02
(1,13,3): (1,12,3) 0.416604 (1,13,2) -0.218807 (1,13,4) 0.364276 (1,14,3) -0.232648
(1,13,4): (1,12,4) 0.888126 (1,13,3) -0.364276 (1,13,5) 0.398301 (1,14,4) -0.460688
(1,13,5): (1,12,5) 1.49591 (1,13,4) -0.398301 (1,13,6) 0.149658 (1,14,5) -0.717749
(1,13,6): (1,12,6) 1.66079 (1,13,5) -0.149658 (1,13,7) -0.148257 (1,14,6) -0.811032
(1,13,7): (1,12,7) 1.49707 (1,13,6) 0.148257 (1,13,8) -0.394229 (1,14,7) -0.718508
(1,13,8): (1,12,8) 0.892719 (1,13,7) 0.394229 (1,13,9) -0.351256 (1,14,8) -0.463677
(1,13,9): (1,12,9) 0.432733 (1,13,8) 0.351256 (1,13,10) -0.181489 (1,14,9) -0.242915
(1,13,10): (1,12,10) 0.219937 (1,13,9) 0.181489 (1,14,10) -0.131565
(1,14,1): (1,13,1) 4.566285E-02 (1,14,2) 3.729519E-02 (1,15,1) -1.912074E-02
(1,14,2): (1,13,2) 9.987338E-02 (1,14,1) -3.729519E-02 (1,14,3) 8.605138E-02 (1,15,2) -4.038505E-02
(1,14,3): (1,13,3) 0.232648 (1,14,2) -8.605138E-02 (1,14,4) 0.136451 (1,15,3) -9.056575E-02
(1,14,4): (1,13,4) 0.460688 (1,14,3) -0.136451 (1,14,5) 0.142037 (1,15,4) -0.172320
(1,14,5): (1,13,5) 0.717749 (1,14,4) -0.142037 (1,14,6) 5.697034E-02 (1,15,5) -0.259390
(1,14,6): (1,13,6) 0.811032 (1,14,5) -5.697034E-02 (1,14,7) -5.632408E-02 (1,15,6) -0.293771
(1,14,7): (1,13,7) 0.718508 (1,14,6) 5.632408E-02 (1,14,8) -0.140201 (1,15,7) -0.259721
(1,14,8): (1,13,8) 0.463677 (1,14,7) 0.140201 (1,14,9) -0.130738 (1,15,8) -0.173613
(1,14,9): (1,13,9) 0.242915 (1,14,8) 0.130738 (1,14,10) -7.020614E-02 (1,15,9) -9.492453E-02
(1,14,10): (1,13,10) 0.131565 (1,14,9) 7.020614E-02 (1,15,10) -5.349551E-02
(1,15,1): (1,14,1) 1.912074E-02 (1,15,2) 1.603153E-02
(1,15,2): (1,14,2) 4.038505E-02 (1,15,1) -1.603153E-02 (1,15,3) 3.587294E-02
(1,15,3): (1,14,3) 9.056575E-02 (1,15,2) -3.587294E-02 (1,15,4) 5.472550E-02
(1,15,4): (1,14,4) 0.172320 (1,15,3) -5.472550E-02 (1,15,5) 5.506885E-02
(1,15,5): (1,14,5) 0.259390 (1,15,4) -5.506885E-02 (1,15,6) 2.266933E-02
(1,15,6): (1,14,6) 0.293771 (1,15,5) -2.266933E-02 (1,15,7) -2.235354E-02
(1,15,7): (1,14,7) 0.259721 (1,15,6) 2.235354E-02 (1,15,8) -5.419457E-02
(1,15,8): (1,14,8) 0.173613 (1,15,7) 5.419457E-02 (1,15,9) -5.208334E-02
(1,15,9): (1,14,9) 9.492453E-02 (1,15,8) 5.208334E-02 (1,15,10) -2.878732E-02
(1,15,10): (1,14,10) 5.349551E-02 (1,15,9) 2.878732E-02

 WEL PACKAGE (WEL-1) FLOW RATES   PERIOD      2   STEP       43
 ----------------------------------------------------------------------------------------
   NUMBER   CELLID                    RATE       NAME                                    
 ----------------------------------------------------------------------------------------
     1      (1,8,6)              -211.12368      WEL                                     
 ----------------------------------------------------------------------------------------




 API PACKAGE (MAR) FLOW RATES   PERIOD      2   STEP       43
 -----------------------------------------------
   NUMBER   CELLID                    RATE      
 -----------------------------------------------
     1      (1,6,5)               46.666667     
     2      (1,6,6)               46.666667     
     3      (1,6,7)               46.666667     
     4      (1,10,5)              23.707893     
     5      (1,10,6)              23.707893     
     6      (1,10,7)              23.707893     
 -----------------------------------------------



1
  HEAD IN LAYER   1 AT END OF TIME STEP  43 IN STRESS PERIOD    2
  ---------------------------------------------------------------------------

            1           2           3           4           5           6           7           8           9          10
 ........................................................................................................................
   1   1.8183E-03  3.6348E-03  7.7472E-03  1.4129E-02  2.0674E-02  2.3386E-02  2.0709E-02  1.4260E-02  8.1716E-03  4.8523E-03
   2   3.9954E-03  8.3181E-03  1.8484E-02  3.5065E-02  5.2903E-02  6.0137E-02  5.2975E-02  3.5340E-02  1.9399E-02  1.1035E-02
   3   9.3021E-03  2.0246E-02  4.7194E-02  9.4046E-02  0.1480      0.1688      0.1482      9.4657E-02  4.9281E-02  2.6663E-02
   4   1.8166E-02  4.1566E-02  0.1028      0.2195      0.3709      0.4213      0.3712      0.2206      0.1068      5.4256E-02
   5   2.6905E-02  6.5086E-02  0.1741      0.4162      0.8162      0.9042      0.8166      0.4178      0.1798      8.4072E-02
   6   2.5142E-02  6.2936E-02  0.1853      0.5484       1.635       1.644       1.636      0.5499      0.1906      8.0666E-02
   7   6.1947E-03  4.9801E-03 -1.4773E-02 -0.1109     -0.4429      -1.565     -0.4427     -0.1102     -1.2981E-02  8.5070E-03
   8  -7.3120E-03 -3.7466E-02 -0.1670     -0.6408      -2.279      -8.603      -2.279     -0.6407     -0.1677     -4.4190E-02
   9   2.2871E-03 -7.2915E-03 -5.7188E-02 -0.2408     -0.7618      -1.953     -0.7616     -0.2403     -5.6127E-02 -6.7363E-03
  10   1.8759E-02  4.1894E-02  0.1071      0.2779      0.8011      0.6897      0.8014      0.2791      0.1113      5.4779E-02
  11   2.1874E-02  4.9898E-02  0.1240      0.2723      0.4928      0.5250      0.4931      0.2736      0.1287      6.5123E-02
  12   1.5419E-02  3.4023E-02  8.0366E-02  0.1626      0.2604      0.2907      0.2606      0.1636      8.3788E-02  4.4695E-02
  13   8.1082E-03  1.7243E-02  3.9038E-02  7.5194E-02  0.1146      0.1293      0.1147      7.5735E-02  4.0874E-02  2.2799E-02
  14   3.5457E-03  7.2725E-03  1.5864E-02  2.9469E-02  4.3611E-02  4.9280E-02  4.3675E-02  2.9716E-02  1.6681E-02  9.6722E-03
  15   1.6343E-03  3.2369E-03  6.8217E-03  1.2288E-02  1.7785E-02  2.0047E-02  1.7816E-02  1.2406E-02  7.2045E-03  4.3278E-03

 HEAD WILL BE SAVED ON UNIT 1043 AT END OF TIME STEP   43, STRESS PERIOD    2


  VOLUME BUDGET FOR ENTIRE MODEL AT END OF TIME STEP   43, STRESS PERIOD   2
  ---------------------------------------------------------------------------------------------------

     CUMULATIVE VOLUME      L**3       RATES FOR THIS TIME STEP      L**3/T          PACKAGE NAME    
     ------------------                 ------------------------                     ----------------

           IN:                                      IN:
           ---                                      ---
              STO-SS =          19.5211                STO-SS =       2.2556E-02     STORAGE                          
              STO-SY =       47961.1525                STO-SY =          46.9664     STORAGE                          
                 WEL =           0.0000                   WEL =           0.0000     WEL-1                            
                 API =      104005.4094                   API =         211.1237     MAR                              
                 CHD =       2.8247E-08                   CHD =           0.0000     CHD_0                            

            TOTAL IN =      151986.0830              TOTAL IN =         258.1126

          OUT:                                     OUT:
          ----                                     ----
              STO-SS =          24.9432                STO-SS =       2.4077E-02     STORAGE                          
              STO-SY =       47955.7304                STO-SY =          46.9649     STORAGE                          
                 WEL =      104005.4094                   WEL =         211.1237     WEL-1                            
                 API =           0.0000                   API =           0.0000     MAR                              
                 CHD =       3.0388E-08                   CHD =           0.0000     CHD_0                            

           TOTAL OUT =      151986.0830             TOTAL OUT =         258.1126

            IN - OUT =       2.7026E-07              IN - OUT =       3.6972E-09

 PERCENT DISCREPANCY =           0.00     PERCENT DISCREPANCY =           0.00




         TIME SUMMARY AT END OF TIME STEP   43 IN STRESS PERIOD    2
                    SECONDS     MINUTES      HOURS       DAYS        YEARS
                    -----------------------------------------------------------
   TIME STEP LENGTH 8.64000E+05  14400.      240.00      10.000     2.73785E-02
 STRESS PERIOD TIME 3.71520E+07 6.19200E+05  10320.      430.00      1.1773    
         TOTAL TIME 3.72384E+07 6.20640E+05  10344.      431.00      1.1800    


end timestep


start timestep kper="2" kstp="44" mode="normal"

 UBDSV1 SAVING           STO-SS ON UNIT   1042 AT TIME STEP     44, STRESS PERIOD      2
 UBDSV1 SAVING           STO-SY ON UNIT   1042 AT TIME STEP     44, STRESS PERIOD      2
 UBDSV1 SAVING     FLOW-JA-FACE ON UNIT   1042 AT TIME STEP     44, STRESS PERIOD      2
 UBDSV06 SAVING       DATA-SPDIS IN MODEL GWF              PACKAGE NPF             CONNECTED TO MODEL GWF              PACKAGE NPF              ON UNIT   1042 AT TIME STEP     44, STRESS PERIOD      2
 UBDSV06 SAVING              WEL IN MODEL GWF              PACKAGE GWF             CONNECTED TO MODEL GWF              PACKAGE WEL-1            ON UNIT   1042 AT TIME STEP     44, STRESS PERIOD      2
 UBDSV06 SAVING              API IN MODEL GWF              PACKAGE GWF             CONNECTED TO MODEL GWF              PACKAGE MAR              ON UNIT   1042 AT TIME STEP     44, STRESS PERIOD      2
 UBDSV06 SAVING              CHD IN MODEL GWF              PACKAGE GWF             CONNECTED TO MODEL GWF              PACKAGE CHD_0            ON UNIT   1042 AT TIME STEP     44, STRESS PERIOD      2

    CALCULATED INTERCELL FLOW FOR PERIOD 2 STEP 44
(1,1,1): (1,1,2) 1.973517E-02 (1,2,1) 2.358143E-02
(1,1,2): (1,1,1) -1.973517E-02 (1,1,3) 4.429045E-02 (1,2,2) 5.001195E-02
(1,1,3): (1,1,2) -4.429045E-02 (1,1,4) 6.809360E-02 (1,2,3) 0.113376
(1,1,4): (1,1,3) -6.809360E-02 (1,1,5) 6.936114E-02 (1,2,4) 0.219439
(1,1,5): (1,1,4) -6.936114E-02 (1,1,6) 2.871853E-02 (1,2,5) 0.336460
(1,1,6): (1,1,5) -2.871853E-02 (1,1,7) -2.831443E-02 (1,2,6) 0.383441
(1,1,7): (1,1,6) 2.831443E-02 (1,1,8) -6.826032E-02 (1,2,7) 0.336878
(1,1,8): (1,1,7) 6.826032E-02 (1,1,9) -6.480530E-02 (1,2,8) 0.221049
(1,1,9): (1,1,8) 6.480530E-02 (1,1,10) -3.553941E-02 (1,2,9) 0.118761
(1,1,10): (1,1,9) 3.553941E-02 (1,2,10) 6.617567E-02
(1,2,1): (1,1,1) -2.358143E-02 (1,2,2) 4.616467E-02 (1,3,1) 5.674151E-02
(1,2,2): (1,1,2) -5.001195E-02 (1,2,1) -4.616467E-02 (1,2,3) 0.107651 (1,3,2) 0.125799
(1,2,3): (1,1,3) -0.113376 (1,2,2) -0.107651 (1,2,4) 0.174109 (1,3,3) 0.299932
(1,2,4): (1,1,4) -0.219439 (1,2,3) -0.174109 (1,2,5) 0.186209 (1,3,4) 0.613484
(1,2,5): (1,1,5) -0.336460 (1,2,4) -0.186209 (1,2,6) 7.555756E-02 (1,3,5) 0.989197
(1,2,6): (1,1,6) -0.383441 (1,2,5) -7.555756E-02 (1,2,7) -7.473646E-02 (1,3,6) 1.13072
(1,2,7): (1,1,7) -0.336878 (1,2,6) 7.473646E-02 (1,2,8) -0.183914 (1,3,7) 0.990161
(1,2,8): (1,1,8) -0.221049 (1,2,7) 0.183914 (1,2,9) -0.167038 (1,3,8) 0.617222
(1,2,9): (1,1,9) -0.118761 (1,2,8) 0.167038 (1,2,10) -8.810917E-02 (1,3,9) 0.312681
(1,2,10): (1,1,10) -6.617567E-02 (1,2,9) 8.810917E-02 (1,3,10) 0.165273
(1,3,1): (1,2,1) -5.674151E-02 (1,3,2) 0.115215 (1,4,1) 9.323673E-02
(1,3,2): (1,2,2) -0.125799 (1,3,1) -0.115215 (1,3,3) 0.281753 (1,4,2) 0.221514
(1,3,3): (1,2,3) -0.299932 (1,3,2) -0.281753 (1,3,4) 0.487274 (1,4,3) 0.574531
(1,3,4): (1,2,4) -0.613484 (1,3,3) -0.487274 (1,3,5) 0.560374 (1,4,4) 1.30122
(1,3,5): (1,2,5) -0.989197 (1,3,4) -0.560374 (1,3,6) 0.215852 (1,4,5) 2.33472
(1,3,6): (1,2,6) -1.13072 (1,3,5) -0.215852 (1,3,7) -0.214073 (1,4,6) 2.65714
(1,3,7): (1,2,7) -0.990161 (1,3,6) 0.214073 (1,3,8) -0.555294 (1,4,7) 2.33623
(1,3,8): (1,2,8) -0.617222 (1,3,7) 0.555294 (1,3,9) -0.471145 (1,4,8) 1.30706
(1,3,9): (1,2,9) -0.312681 (1,3,8) 0.471145 (1,3,10) -0.235405 (1,4,9) 0.594932
(1,3,10): (1,2,10) -0.165273 (1,3,9) 0.235405 (1,4,10) 0.287649
(1,4,1): (1,3,1) -9.323673E-02 (1,4,2) 0.243520 (1,5,1) 8.975523E-02
(1,4,2): (1,3,2) -0.221514 (1,4,1) -0.243520 (1,4,3) 0.634978 (1,5,2) 0.239471
(1,4,3): (1,3,3) -0.574531 (1,4,2) -0.634978 (1,4,4) 1.21336 (1,5,3) 0.728415
(1,4,4): (1,3,4) -1.30122 (1,4,3) -1.21336 (1,4,5) 1.58683 (1,5,4) 2.04946
(1,4,5): (1,3,5) -2.33472 (1,4,4) -1.58683 (1,4,6) 0.532197 (1,5,5) 4.81268
(1,4,6): (1,3,6) -2.65714 (1,4,5) -0.532197 (1,4,7) -0.528928 (1,5,6) 5.26029
(1,4,7): (1,3,7) -2.33623 (1,4,6) 0.528928 (1,4,8) -1.57735 (1,5,7) 4.81409
(1,4,8): (1,3,8) -1.30706 (1,4,7) 1.57735 (1,4,9) -1.18243 (1,5,8) 2.05466
(1,4,9): (1,3,9) -0.594932 (1,4,8) 1.18243 (1,4,10) -0.542531 (1,5,9) 0.747131
(1,4,10): (1,3,10) -0.287649 (1,4,9) 0.542531 (1,5,10) 0.304618
(1,5,1): (1,4,1) -8.975523E-02 (1,5,2) 0.393463 (1,6,1) -2.140966E-02
(1,5,2): (1,4,2) -0.239471 (1,5,1) -0.393463 (1,5,3) 1.12579 (1,6,2) -2.993670E-02
(1,5,3): (1,4,3) -0.728415 (1,5,2) -1.12579 (1,5,4) 2.54030 (1,6,3) 9.571437E-02
(1,5,4): (1,4,4) -2.04946 (1,5,3) -2.54030 (1,5,5) 4.33920 (1,6,4) 1.35962
(1,5,5): (1,4,5) -4.81268 (1,5,4) -4.33920 (1,5,6) 0.965075 (1,6,5) 9.48024
(1,5,6): (1,4,6) -5.26029 (1,5,5) -0.965075 (1,5,7) -0.960425 (1,6,6) 8.56722
(1,5,7): (1,4,7) -4.81409 (1,5,6) 0.960425 (1,5,8) -4.32560 (1,6,7) 9.48008
(1,5,8): (1,4,8) -2.05466 (1,5,7) 4.32560 (1,5,9) -2.49520 (1,6,8) 1.35824
(1,5,9): (1,4,9) -0.747131 (1,5,8) 2.49520 (1,5,10) -0.986056 (1,6,9) 9.056528E-02
(1,5,10): (1,4,10) -0.304618 (1,5,9) 0.986056 (1,6,10) -4.530626E-02
(1,6,1): (1,5,1) 2.140966E-02 (1,6,2) 0.384906 (1,7,1) -0.198296
(1,6,2): (1,5,2) 2.993670E-02 (1,6,1) -0.384906 (1,6,3) 1.25283 (1,7,2) -0.599749
(1,6,3): (1,5,3) -9.571437E-02 (1,6,2) -1.25283 (1,6,4) 3.83220 (1,7,3) -2.07194
(1,6,4): (1,5,4) -1.35962 (1,6,3) -3.83220 (1,6,5) 12.6464 (1,7,4) -7.01026
(1,6,5): (1,5,5) -9.48024 (1,6,4) -12.6464 (1,6,6) 0.109458 (1,7,5) -24.2524
(1,6,6): (1,5,6) -8.56722 (1,6,5) -0.109458 (1,6,7) -0.104967 (1,7,6) -37.4361
(1,6,7): (1,5,7) -9.48008 (1,6,6) 0.104967 (1,6,8) -12.6333 (1,7,7) -24.2551
(1,6,8): (1,5,8) -1.35824 (1,6,7) 12.6333 (1,6,9) -3.79049 (1,7,8) -7.02001
(1,6,9): (1,5,9) -9.056528E-02 (1,6,8) 3.79049 (1,6,10) -1.12326 (1,7,9) -2.11056
(1,6,10): (1,5,10) 4.530626E-02 (1,6,9) 1.12326 (1,7,10) -0.749610
(1,7,1): (1,6,1) 0.198296 (1,7,2) -1.569974E-02 (1,8,1) -0.140842
(1,7,2): (1,6,2) 0.599749 (1,7,1) 1.569974E-02 (1,7,3) -0.208232 (1,8,2) -0.436364
(1,7,3): (1,6,3) 2.07194 (1,7,2) 0.208232 (1,7,4) -0.976806 (1,8,3) -1.54469
(1,7,4): (1,6,4) 7.01026 (1,7,3) 0.976806 (1,7,5) -3.29079 (1,8,4) -5.28254
(1,7,5): (1,6,5) 24.2524 (1,7,4) 3.29079 (1,7,6) -10.7081 (1,8,5) -17.5899
(1,7,6): (1,6,6) 37.4361 (1,7,5) 10.7081 (1,7,7) 10.7105 (1,8,6) -59.3512
(1,7,7): (1,6,7) 24.2551 (1,7,6) -10.7105 (1,7,8) 3.29595 (1,8,7) -17.5916
(1,7,8): (1,6,8) 7.02001 (1,7,7) -3.29595 (1,7,9) 0.988525 (1,8,8) -5.28913
(1,7,9): (1,6,9) 2.11056 (1,7,8) -0.988525 (1,7,10) 0.225337 (1,8,9) -1.57153
(1,7,10): (1,6,10) 0.749610 (1,7,9) -0.225337 (1,8,10) -0.542983
(1,8,1): (1,7,1) 0.140842 (1,8,2) -0.310852 (1,9,1) 9.801321E-02
(1,8,2): (1,7,2) 0.436364 (1,8,1) 0.310852 (1,8,3) -1.31403 (1,9,2) 0.303672
(1,8,3): (1,7,3) 1.54469 (1,8,2) 1.31403 (1,8,4) -4.69306 (1,9,3) 1.09021
(1,8,4): (1,7,4) 5.28254 (1,8,3) 4.69306 (1,8,5) -15.3348 (1,9,4) 3.88369
(1,8,5): (1,7,5) 17.5899 (1,8,4) 15.3348 (1,8,6) -48.7257 (1,9,5) 13.9395
(1,8,6): (1,7,6) 59.3512 (1,8,5) 48.7257 (1,8,7) 48.7270 (1,9,6) 53.3014
(1,8,7): (1,7,7) 17.5916 (1,8,6) -48.7270 (1,8,8) 15.3350 (1,9,7) 13.9406
(1,8,8): (1,7,8) 5.28913 (1,8,7) -15.3350 (1,8,9) 4.68408 (1,9,8) 3.88814
(1,8,9): (1,7,9) 1.57153 (1,8,8) -4.68408 (1,8,10) 1.25062 (1,9,9) 1.10875
(1,8,10): (1,7,10) 0.542983 (1,8,9) -1.25062 (1,9,10) 0.377602
(1,9,1): (1,8,1) -9.801321E-02 (1,9,2) -0.105178 (1,10,1) 0.171240
(1,9,2): (1,8,2) -0.303672 (1,9,1) 0.105178 (1,9,3) -0.525722 (1,10,2) 0.504774
(1,9,3): (1,8,3) -1.09021 (1,9,2) 0.525722 (1,9,4) -1.87675 (1,10,3) 1.67765
(1,9,4): (1,8,4) -3.88369 (1,9,3) 1.87675 (1,9,5) -5.13603 (1,10,4) 5.34380
(1,9,5): (1,8,5) -13.9395 (1,9,4) 5.13603 (1,9,6) -10.9983 (1,10,5) 16.8388
(1,9,6): (1,8,6) -53.3014 (1,9,5) 10.9983 (1,9,7) 11.0002 (1,10,6) 28.1691
(1,9,7): (1,8,7) -13.9406 (1,9,6) -11.0002 (1,9,8) 5.13972 (1,10,7) 16.8408
(1,9,8): (1,8,8) -3.88814 (1,9,7) -5.13972 (1,9,9) 1.88233 (1,10,8) 5.35206
(1,9,9): (1,8,9) -1.10875 (1,9,8) -1.88233 (1,9,10) 0.518427 (1,10,9) 1.71104
(1,9,10): (1,8,10) -0.377602 (1,9,9) -0.518427 (1,10,10) 0.633464
(1,10,1): (1,9,1) -0.171240 (1,10,2) 0.227550 (1,11,1) 3.576202E-02
(1,10,2): (1,9,2) -0.504774 (1,10,1) -0.227550 (1,10,3) 0.638015 (1,11,2) 9.135203E-02
(1,10,3): (1,9,3) -1.67765 (1,10,2) -0.638015 (1,10,4) 1.69934 (1,11,3) 0.198377
(1,10,4): (1,9,4) -5.34380 (1,10,3) -1.69934 (1,10,5) 5.54639 (1,11,4) 1.813230E-03
(1,10,5): (1,9,5) -16.8388 (1,10,4) -5.54639 (1,10,6) -1.22899 (1,11,5) -3.20863
(1,10,6): (1,9,6) -28.1691 (1,10,5) 1.22899 (1,10,7) 1.23252 (1,11,6) -1.63042
(1,10,7): (1,9,7) -16.8408 (1,10,6) -1.23252 (1,10,8) -5.53636 (1,11,7) -3.20829
(1,10,8): (1,9,8) -5.35206 (1,10,7) 5.53636 (1,10,9) -1.66838 (1,11,8) 3.607811E-03
(1,10,9): (1,9,9) -1.71104 (1,10,8) 1.66838 (1,10,10) -0.549638 (1,11,9) 0.205712
(1,10,10): (1,9,10) -0.633464 (1,10,9) 0.549638 (1,11,10) 0.118311
(1,11,1): (1,10,1) -3.576202E-02 (1,11,2) 0.283246 (1,12,1) -6.483987E-02
(1,11,2): (1,10,2) -9.135203E-02 (1,11,1) -0.283246 (1,11,3) 0.745608 (1,12,2) -0.156916
(1,11,3): (1,10,3) -0.198377 (1,11,2) -0.745608 (1,11,4) 1.49994 (1,12,3) -0.429093
(1,11,4): (1,10,4) -1.813230E-03 (1,11,3) -1.49994 (1,11,5) 2.27141 (1,12,4) -1.09111
(1,11,5): (1,10,5) 3.20863 (1,11,4) -2.27141 (1,11,6) 0.323609 (1,12,5) -2.36869
(1,11,6): (1,10,6) 1.63042 (1,11,5) -0.323609 (1,11,7) -0.319768 (1,12,6) -2.38371
(1,11,7): (1,10,7) 3.20829 (1,11,6) 0.319768 (1,11,8) -2.26018 (1,12,7) -2.36973
(1,11,8): (1,10,8) -3.607811E-03 (1,11,7) 2.26018 (1,11,9) -1.46344 (1,12,8) -1.09510
(1,11,9): (1,10,9) -0.205712 (1,11,8) 1.46344 (1,11,10) -0.637403 (1,12,9) -0.443110
(1,11,10): (1,10,10) -0.118311 (1,11,9) 0.637403 (1,12,10) -0.202738
(1,12,1): (1,11,1) 6.483987E-02 (1,12,2) 0.191055 (1,13,1) -7.607489E-02
(1,12,2): (1,11,2) 0.156916 (1,12,1) -0.191055 (1,12,3) 0.472594 (1,13,2) -0.171857
(1,12,3): (1,11,3) 0.429093 (1,12,2) -0.472594 (1,12,4) 0.835388 (1,13,3) -0.419082
(1,12,4): (1,11,4) 1.09111 (1,12,3) -0.835388 (1,12,5) 0.994946 (1,13,4) -0.884212
(1,12,5): (1,11,5) 2.36869 (1,12,4) -0.994946 (1,12,6) 0.308735 (1,13,5) -1.48051
(1,12,6): (1,11,6) 2.38371 (1,12,5) -0.308735 (1,12,7) -0.305923 (1,13,6) -1.64058
(1,12,7): (1,11,7) 2.36973 (1,12,6) 0.305923 (1,12,8) -0.986792 (1,13,7) -1.48177
(1,12,8): (1,11,8) 1.09510 (1,12,7) 0.986792 (1,12,9) -0.809198 (1,13,8) -0.889114
(1,12,9): (1,11,9) 0.443110 (1,12,8) 0.809198 (1,12,10) -0.396578 (1,13,9) -0.436006
(1,12,10): (1,11,10) 0.202738 (1,12,9) 0.396578 (1,13,10) -0.225052
(1,13,1): (1,12,1) 7.607489E-02 (1,13,2) 9.525443E-02 (1,14,1) -4.844200E-02
(1,13,2): (1,12,2) 0.171857 (1,13,1) -9.525443E-02 (1,13,3) 0.225239 (1,14,2) -0.104168
(1,13,3): (1,12,3) 0.419082 (1,13,2) -0.225239 (1,13,4) 0.370476 (1,14,3) -0.239180
(1,13,4): (1,12,4) 0.884212 (1,13,3) -0.370476 (1,13,5) 0.401355 (1,14,4) -0.468442
(1,13,5): (1,12,5) 1.48051 (1,13,4) -0.401355 (1,13,6) 0.150626 (1,14,5) -0.724713
(1,13,6): (1,12,6) 1.64058 (1,13,5) -0.150626 (1,13,7) -0.149056 (1,14,6) -0.817483
(1,13,7): (1,12,7) 1.48177 (1,13,6) 0.149056 (1,13,8) -0.396883 (1,14,7) -0.725550
(1,13,8): (1,12,8) 0.889114 (1,13,7) 0.396883 (1,13,9) -0.356438 (1,14,8) -0.471696
(1,13,9): (1,12,9) 0.436006 (1,13,8) 0.356438 (1,13,10) -0.185705 (1,14,9) -0.250174
(1,13,10): (1,12,10) 0.225052 (1,13,9) 0.185705 (1,14,10) -0.137559
(1,14,1): (1,13,1) 4.844200E-02 (1,14,2) 3.953299E-02 (1,15,1) -2.059411E-02
(1,14,2): (1,13,2) 0.104168 (1,14,1) -3.953299E-02 (1,14,3) 9.024618E-02 (1,15,2) -4.279901E-02
(1,14,3): (1,13,3) 0.239180 (1,14,2) -9.024618E-02 (1,14,4) 0.141434 (1,15,3) -9.465549E-02
(1,14,4): (1,13,4) 0.468442 (1,14,3) -0.141434 (1,14,5) 0.145888 (1,15,4) -0.178193
(1,14,5): (1,13,5) 0.724713 (1,14,4) -0.145888 (1,14,6) 5.845151E-02 (1,15,5) -0.266392
(1,14,6): (1,13,6) 0.817483 (1,14,5) -5.845151E-02 (1,14,7) -5.771564E-02 (1,15,6) -0.301169
(1,14,7): (1,13,7) 0.725550 (1,14,6) 5.771564E-02 (1,14,8) -0.143837 (1,15,7) -0.266763
(1,14,8): (1,13,8) 0.471696 (1,14,7) 0.143837 (1,14,9) -0.135167 (1,15,8) -0.179619
(1,14,9): (1,13,9) 0.250174 (1,14,8) 0.135167 (1,14,10) -7.316190E-02 (1,15,9) -9.939165E-02
(1,14,10): (1,13,10) 0.137559 (1,14,9) 7.316190E-02 (1,15,10) -5.682471E-02
(1,15,1): (1,14,1) 2.059411E-02 (1,15,2) 1.732881E-02
(1,15,2): (1,14,2) 4.279901E-02 (1,15,1) -1.732881E-02 (1,15,3) 3.839198E-02
(1,15,3): (1,14,3) 9.465549E-02 (1,15,2) -3.839198E-02 (1,15,4) 5.792649E-02
(1,15,4): (1,14,4) 0.178193 (1,15,3) -5.792649E-02 (1,15,5) 5.779376E-02
(1,15,5): (1,14,5) 0.266392 (1,15,4) -5.779376E-02 (1,15,6) 2.375723E-02
(1,15,6): (1,14,6) 0.301169 (1,15,5) -2.375723E-02 (1,15,7) -2.339140E-02
(1,15,7): (1,14,7) 0.266763 (1,15,6) 2.339140E-02 (1,15,8) -5.679997E-02
(1,15,8): (1,14,8) 0.179619 (1,15,7) 5.679997E-02 (1,15,9) -5.497467E-02
(1,15,9): (1,14,9) 9.939165E-02 (1,15,8) 5.497467E-02 (1,15,10) -3.060608E-02
(1,15,10): (1,14,10) 5.682471E-02 (1,15,9) 3.060608E-02

 WEL PACKAGE (WEL-1) FLOW RATES   PERIOD      2   STEP       44
 ----------------------------------------------------------------------------------------
   NUMBER   CELLID                    RATE       NAME                                    
 ----------------------------------------------------------------------------------------
     1      (1,8,6)              -210.65454      WEL                                     
 ----------------------------------------------------------------------------------------




 API PACKAGE (MAR) FLOW RATES   PERIOD      2   STEP       44
 -----------------------------------------------
   NUMBER   CELLID                    RATE      
 -----------------------------------------------
     1      (1,6,5)               46.666667     
     2      (1,6,6)               46.666667     
     3      (1,6,7)               46.666667     
     4      (1,10,5)              23.551513     
     5      (1,10,6)              23.551513     
     6      (1,10,7)              23.551513     
 -----------------------------------------------



1
  HEAD IN LAYER   1 AT END OF TIME STEP  44 IN STRESS PERIOD    2
  ---------------------------------------------------------------------------

            1           2           3           4           5           6           7           8           9          10
 ........................................................................................................................
   1   2.0347E-03  4.0075E-03  8.4328E-03  1.5232E-02  2.2153E-02  2.5017E-02  2.2193E-02  1.5382E-02  8.9114E-03  5.3606E-03
   2   4.3918E-03  9.0042E-03  1.9748E-02  3.7095E-02  5.5612E-02  6.3121E-02  5.5694E-02  3.7404E-02  2.0763E-02  1.1970E-02
   3   1.0060E-02  2.1557E-02  4.9593E-02  9.7848E-02  0.1530      0.1743      0.1532      9.8525E-02  5.1870E-02  2.8451E-02
   4   1.9366E-02  4.3612E-02  0.1064      0.2251      0.3780      0.4290      0.3783      0.2263      0.1107      5.7052E-02
   5   2.8316E-02  6.7399E-02  0.1780      0.4218      0.8227      0.9111      0.8231      0.4235      0.1841      8.7251E-02
   6   2.6181E-02  6.4425E-02  0.1874      0.5506       1.637       1.647       1.638      0.5522      0.1930      8.2759E-02
   7   6.4034E-03  4.8344E-03 -1.5979E-02 -0.1138     -0.4467      -1.568     -0.4465     -0.1131     -1.4101E-02  8.4135E-03
   8  -7.6718E-03 -3.8781E-02 -0.1707     -0.6482      -2.288      -8.606      -2.288     -0.6481     -0.1715     -4.5839E-02
   9   2.1275E-03 -8.3881E-03 -6.1004E-02 -0.2498     -0.7766      -1.969     -0.7764     -0.2493     -5.9933E-02 -8.0485E-03
  10   1.9219E-02  4.1879E-02  0.1050      0.2705      0.7848      0.6708      0.7851      0.2717      0.1093      5.4952E-02
  11   2.2787E-02  5.0968E-02  0.1246      0.2707      0.4872      0.5180      0.4876      0.2721      0.1296      6.6704E-02
  12   1.6317E-02  3.5356E-02  8.2230E-02  0.1644      0.2614      0.2914      0.2617      0.1655      8.5885E-02  4.6565E-02
  13   8.7224E-03  1.8230E-02  4.0663E-02  7.7426E-02  0.1171      0.1320      0.1173      7.8024E-02  4.2656E-02  2.4164E-02
  14   3.8824E-03  7.8326E-03  1.6842E-02  3.0942E-02  4.5464E-02  5.1280E-02  4.5538E-02  3.1219E-02  1.7745E-02  1.0441E-02
  15   1.8238E-03  3.5560E-03  7.3924E-03  1.3177E-02  1.8946E-02  2.1317E-02  1.8982E-02  1.3313E-02  7.8230E-03  4.7648E-03

 HEAD WILL BE SAVED ON UNIT 1043 AT END OF TIME STEP   44, STRESS PERIOD    2


  VOLUME BUDGET FOR ENTIRE MODEL AT END OF TIME STEP   44, STRESS PERIOD   2
  ---------------------------------------------------------------------------------------------------

     CUMULATIVE VOLUME      L**3       RATES FOR THIS TIME STEP      L**3/T          PACKAGE NAME    
     ------------------                 ------------------------                     ----------------

           IN:                                      IN:
           ---                                      ---
              STO-SS =          19.7424                STO-SS =       2.2132E-02     STORAGE                          
              STO-SY =       48421.7967                STO-SY =          46.0644     STORAGE                          
                 WEL =           0.0000                   WEL =           0.0000     WEL-1                            
                 API =      106111.9547                   API =         210.6545     MAR                              
                 CHD =       2.8247E-08                   CHD =           0.0000     CHD_0                            

            TOTAL IN =      154553.4939              TOTAL IN =         256.7411

          OUT:                                     OUT:
          ----                                     ----
              STO-SS =          25.1794                STO-SS =       2.3613E-02     STORAGE                          
              STO-SY =       48416.3598                STO-SY =          46.0629     STORAGE                          
                 WEL =      106111.9547                   WEL =         210.6545     WEL-1                            
                 API =           0.0000                   API =           0.0000     MAR                              
                 CHD =       3.0388E-08                   CHD =           0.0000     CHD_0                            

           TOTAL OUT =      154553.4939             TOTAL OUT =         256.7411

            IN - OUT =       3.0836E-07              IN - OUT =       3.8098E-09

 PERCENT DISCREPANCY =           0.00     PERCENT DISCREPANCY =           0.00




         TIME SUMMARY AT END OF TIME STEP   44 IN STRESS PERIOD    2
                    SECONDS     MINUTES      HOURS       DAYS        YEARS
                    -----------------------------------------------------------
   TIME STEP LENGTH 8.64000E+05  14400.      240.00      10.000     2.73785E-02
 STRESS PERIOD TIME 3.80160E+07 6.33600E+05  10560.      440.00      1.2047    
         TOTAL TIME 3.81024E+07 6.35040E+05  10584.      441.00      1.2074    


end timestep


start timestep kper="2" kstp="45" mode="normal"

 UBDSV1 SAVING           STO-SS ON UNIT   1042 AT TIME STEP     45, STRESS PERIOD      2
 UBDSV1 SAVING           STO-SY ON UNIT   1042 AT TIME STEP     45, STRESS PERIOD      2
 UBDSV1 SAVING     FLOW-JA-FACE ON UNIT   1042 AT TIME STEP     45, STRESS PERIOD      2
 UBDSV06 SAVING       DATA-SPDIS IN MODEL GWF              PACKAGE NPF             CONNECTED TO MODEL GWF              PACKAGE NPF              ON UNIT   1042 AT TIME STEP     45, STRESS PERIOD      2
 UBDSV06 SAVING              WEL IN MODEL GWF              PACKAGE GWF             CONNECTED TO MODEL GWF              PACKAGE WEL-1            ON UNIT   1042 AT TIME STEP     45, STRESS PERIOD      2
 UBDSV06 SAVING              API IN MODEL GWF              PACKAGE GWF             CONNECTED TO MODEL GWF              PACKAGE MAR              ON UNIT   1042 AT TIME STEP     45, STRESS PERIOD      2
 UBDSV06 SAVING              CHD IN MODEL GWF              PACKAGE GWF             CONNECTED TO MODEL GWF              PACKAGE CHD_0            ON UNIT   1042 AT TIME STEP     45, STRESS PERIOD      2

    CALCULATED INTERCELL FLOW FOR PERIOD 2 STEP 45
(1,1,1): (1,1,2) 2.136412E-02 (1,2,1) 2.544783E-02
(1,1,2): (1,1,1) -2.136412E-02 (1,1,3) 4.752935E-02 (1,2,2) 5.321216E-02
(1,1,3): (1,1,2) -4.752935E-02 (1,1,4) 7.237980E-02 (1,2,3) 0.119214
(1,1,4): (1,1,3) -7.237980E-02 (1,1,5) 7.319424E-02 (1,2,4) 0.228721
(1,1,5): (1,1,4) -7.319424E-02 (1,1,6) 3.027776E-02 (1,2,5) 0.348761
(1,1,6): (1,1,5) -3.027776E-02 (1,1,7) -2.981099E-02 (1,2,6) 0.396954
(1,1,7): (1,1,6) 2.981099E-02 (1,1,8) -7.194562E-02 (1,2,7) 0.349228
(1,1,8): (1,1,7) 7.194562E-02 (1,1,9) -6.871056E-02 (1,2,8) 0.230499
(1,1,9): (1,1,8) 6.871056E-02 (1,1,10) -3.791355E-02 (1,2,9) 0.125072
(1,1,10): (1,1,9) 3.791355E-02 (1,2,10) 7.055039E-02
(1,2,1): (1,1,1) -2.544783E-02 (1,2,2) 4.912732E-02 (1,3,1) 6.044129E-02
(1,2,2): (1,1,2) -5.321216E-02 (1,2,1) -4.912732E-02 (1,2,3) 0.113528 (1,3,2) 0.132091
(1,2,3): (1,1,3) -0.119214 (1,2,2) -0.113528 (1,2,4) 0.181836 (1,3,3) 0.311257
(1,2,4): (1,1,4) -0.228721 (1,2,3) -0.181836 (1,2,5) 0.193049 (1,3,4) 0.631163
(1,2,5): (1,1,5) -0.348761 (1,2,4) -0.193049 (1,2,6) 7.832032E-02 (1,3,5) 1.01222
(1,2,6): (1,1,6) -0.396954 (1,2,5) -7.832032E-02 (1,2,7) -7.738708E-02 (1,3,6) 1.15586
(1,2,7): (1,1,7) -0.349228 (1,2,6) 7.738708E-02 (1,2,8) -0.190490 (1,3,7) 1.01328
(1,2,8): (1,1,8) -0.230499 (1,2,7) 0.190490 (1,2,9) -0.174078 (1,3,8) 0.635239
(1,2,9): (1,1,9) -0.125072 (1,2,8) 0.174078 (1,2,10) -9.241778E-02 (1,3,9) 0.324950
(1,2,10): (1,1,10) -7.055039E-02 (1,2,9) 9.241778E-02 (1,3,10) 0.173893
(1,3,1): (1,2,1) -6.044129E-02 (1,3,2) 0.120769 (1,4,1) 9.765565E-02
(1,3,2): (1,2,2) -0.132091 (1,3,1) -0.120769 (1,3,3) 0.292660 (1,4,2) 0.228772
(1,3,3): (1,2,3) -0.311257 (1,3,2) -0.292660 (1,3,4) 0.501337 (1,4,3) 0.586931
(1,3,4): (1,2,4) -0.631163 (1,3,3) -0.501337 (1,3,5) 0.572495 (1,4,4) 1.31931
(1,3,5): (1,2,5) -1.01222 (1,3,4) -0.572495 (1,3,6) 0.220685 (1,4,5) 2.35672
(1,3,6): (1,2,6) -1.15586 (1,3,5) -0.220685 (1,3,7) -0.218693 (1,4,6) 2.68067
(1,3,7): (1,2,7) -1.01328 (1,3,6) 0.218693 (1,3,8) -0.566914 (1,4,7) 2.35836
(1,3,8): (1,2,8) -0.635239 (1,3,7) 0.566914 (1,3,9) -0.483909 (1,4,8) 1.32556
(1,3,9): (1,2,9) -0.324950 (1,3,8) 0.483909 (1,3,10) -0.243353 (1,4,9) 0.608477
(1,3,10): (1,2,10) -0.173893 (1,3,9) 0.243353 (1,4,10) 0.297652
(1,4,1): (1,3,1) -9.765565E-02 (1,4,2) 0.251916 (1,5,1) 9.173636E-02
(1,4,2): (1,3,2) -0.228772 (1,4,1) -0.251916 (1,4,3) 0.651043 (1,5,2) 0.241883
(1,4,3): (1,3,3) -0.586931 (1,4,2) -0.651043 (1,4,4) 1.23312 (1,5,3) 0.730556
(1,4,4): (1,3,4) -1.31931 (1,4,3) -1.23312 (1,4,5) 1.60280 (1,5,4) 2.04899
(1,4,5): (1,3,5) -2.35672 (1,4,4) -1.60280 (1,4,6) 0.538492 (1,5,5) 4.80768
(1,4,6): (1,3,6) -2.68067 (1,4,5) -0.538492 (1,4,7) -0.534881 (1,5,6) 5.25406
(1,4,7): (1,3,7) -2.35836 (1,4,6) 0.534881 (1,4,8) -1.59252 (1,5,7) 4.80917
(1,4,8): (1,3,8) -1.32556 (1,4,7) 1.59252 (1,4,9) -1.20015 (1,5,8) 2.05443
(1,4,9): (1,3,9) -0.608477 (1,4,8) 1.20015 (1,4,10) -0.554014 (1,5,9) 0.749831
(1,4,10): (1,3,10) -0.297652 (1,4,9) 0.554014 (1,5,10) 0.308125
(1,5,1): (1,4,1) -9.173636E-02 (1,5,2) 0.402300 (1,6,1) -2.529644E-02
(1,5,2): (1,4,2) -0.241883 (1,5,1) -0.402300 (1,5,3) 1.14164 (1,6,2) -3.837857E-02
(1,5,3): (1,4,3) -0.730556 (1,5,2) -1.14164 (1,5,4) 2.55763 (1,6,3) 7.699824E-02
(1,5,4): (1,4,4) -2.04899 (1,5,3) -2.55763 (1,5,5) 4.35105 (1,6,4) 1.32573
(1,5,5): (1,4,5) -4.80768 (1,5,4) -4.35105 (1,5,6) 0.970253 (1,6,5) 9.43168
(1,5,6): (1,4,6) -5.25406 (1,5,5) -0.970253 (1,5,7) -0.965175 (1,6,6) 8.51685
(1,5,7): (1,4,7) -4.80917 (1,5,6) 0.965175 (1,5,8) -4.33648 (1,6,7) 9.43147
(1,5,8): (1,4,8) -2.05443 (1,5,7) 4.33648 (1,5,9) -2.51014 (1,6,8) 1.32409
(1,5,9): (1,4,9) -0.749831 (1,5,8) 2.51014 (1,5,10) -0.996763 (1,6,9) 7.095910E-02
(1,5,10): (1,4,10) -0.308125 (1,5,9) 0.996763 (1,6,10) -5.650068E-02
(1,6,1): (1,5,1) 2.529644E-02 (1,6,2) 0.389171 (1,7,1) -0.206684
(1,6,2): (1,5,2) 3.837857E-02 (1,6,1) -0.389171 (1,6,3) 1.25832 (1,7,2) -0.616067
(1,6,3): (1,5,3) -7.699824E-02 (1,6,2) -1.25832 (1,6,4) 3.83443 (1,7,3) -2.10459
(1,6,4): (1,5,4) -1.32573 (1,6,3) -3.83443 (1,6,5) 12.6461 (1,7,4) -7.06368
(1,6,5): (1,5,5) -9.43168 (1,6,4) -12.6461 (1,6,6) 0.112565 (1,7,5) -24.3198
(1,6,6): (1,5,6) -8.51685 (1,6,5) -0.112565 (1,6,7) -0.107702 (1,7,6) -37.4949
(1,6,7): (1,5,7) -9.43147 (1,6,6) 0.107702 (1,6,8) -12.6322 (1,7,7) -24.3227
(1,6,8): (1,5,8) -1.32409 (1,6,7) 12.6322 (1,6,9) -3.79096 (1,7,8) -7.07408
(1,6,9): (1,5,9) -7.095910E-02 (1,6,8) 3.79096 (1,6,10) -1.12549 (1,7,9) -2.14521
(1,6,10): (1,5,10) 5.650068E-02 (1,6,9) 1.12549 (1,7,10) -0.771567
(1,7,1): (1,6,1) 0.206684 (1,7,2) -1.930120E-02 (1,8,1) -0.146580
(1,7,2): (1,6,2) 0.616067 (1,7,1) 1.930120E-02 (1,7,3) -0.218608 (1,8,2) -0.447969
(1,7,3): (1,6,3) 2.10459 (1,7,2) 0.218608 (1,7,4) -0.992918 (1,8,3) -1.56908
(1,7,4): (1,6,4) 7.06368 (1,7,3) 0.992918 (1,7,5) -3.29704 (1,8,4) -5.32365
(1,7,5): (1,6,5) 24.3198 (1,7,4) 3.29704 (1,7,6) -10.6921 (1,8,5) -17.6344
(1,7,6): (1,6,6) 37.4949 (1,7,5) 10.6921 (1,7,7) 10.6947 (1,8,6) -59.3380
(1,7,7): (1,6,7) 24.3227 (1,7,6) -10.6947 (1,7,8) 3.30252 (1,8,7) -17.6362
(1,7,8): (1,6,8) 7.07408 (1,7,7) -3.30252 (1,7,9) 1.00500 (1,8,8) -5.33067
(1,7,9): (1,6,9) 2.14521 (1,7,8) -1.00500 (1,7,10) 0.235314 (1,8,9) -1.59726
(1,7,10): (1,6,10) 0.771567 (1,7,9) -0.235314 (1,8,10) -0.558467
(1,8,1): (1,7,1) 0.146580 (1,8,2) -0.320307 (1,9,1) 9.984608E-02
(1,8,2): (1,7,2) 0.447969 (1,8,1) 0.320307 (1,8,3) -1.33714 (1,9,2) 0.305407
(1,8,3): (1,7,3) 1.56908 (1,8,2) 1.33714 (1,8,4) -4.72548 (1,9,3) 1.08800
(1,8,4): (1,7,4) 5.32365 (1,8,3) 4.72548 (1,8,5) -15.3396 (1,9,4) 3.86352
(1,8,5): (1,7,5) 17.6344 (1,8,4) 15.3396 (1,8,6) -48.6212 (1,9,5) 13.8674
(1,8,6): (1,7,6) 59.3380 (1,8,5) 48.6212 (1,8,7) 48.6226 (1,9,6) 53.1001
(1,8,7): (1,7,7) 17.6362 (1,8,6) -48.6226 (1,8,8) 15.3398 (1,9,7) 13.8686
(1,8,8): (1,7,8) 5.33067 (1,8,7) -15.3398 (1,8,9) 4.71591 (1,9,8) 3.86817
(1,8,9): (1,7,9) 1.59726 (1,8,8) -4.71591 (1,8,10) 1.27075 (1,9,9) 1.10705
(1,8,10): (1,7,10) 0.558467 (1,8,9) -1.27075 (1,9,10) 0.380376
(1,9,1): (1,8,1) -9.984608E-02 (1,9,2) -0.114715 (1,10,1) 0.177385
(1,9,2): (1,8,2) -0.305407 (1,9,1) 0.114715 (1,9,3) -0.552591 (1,10,2) 0.515274
(1,9,3): (1,8,3) -1.08800 (1,9,2) 0.552591 (1,9,4) -1.92575 (1,10,3) 1.69378
(1,9,4): (1,8,4) -3.86352 (1,9,3) 1.92575 (1,9,5) -5.18517 (1,10,4) 5.35414
(1,9,5): (1,8,5) -13.8674 (1,9,4) 5.18517 (1,9,6) -10.9886 (1,10,5) 16.7970
(1,9,6): (1,8,6) -53.1001 (1,9,5) 10.9886 (1,9,7) 10.9906 (1,10,6) 28.0862
(1,9,7): (1,8,7) -13.8686 (1,9,6) -10.9906 (1,9,8) 5.18901 (1,10,7) 16.7992
(1,9,8): (1,8,8) -3.86817 (1,9,7) -5.18901 (1,9,9) 1.93110 (1,10,8) 5.36289
(1,9,9): (1,8,9) -1.10705 (1,9,8) -1.93110 (1,9,10) 0.542884 (1,10,9) 1.72868
(1,9,10): (1,8,10) -0.380376 (1,9,9) -0.542884 (1,10,10) 0.647948
(1,10,1): (1,9,1) -0.177385 (1,10,2) 0.222325 (1,11,1) 4.045928E-02
(1,10,2): (1,9,2) -0.515274 (1,10,1) -0.222325 (1,10,3) 0.616570 (1,11,2) 0.102337
(1,10,3): (1,9,3) -1.69378 (1,10,2) -0.616570 (1,10,4) 1.64420 (1,11,3) 0.225463
(1,10,4): (1,9,4) -5.35414 (1,10,3) -1.64420 (1,10,5) 5.44688 (1,11,4) 5.980611E-02
(1,10,5): (1,9,5) -16.7970 (1,10,4) -5.44688 (1,10,6) -1.25362 (1,11,5) -3.09303
(1,10,6): (1,9,6) -28.0862 (1,10,5) 1.25362 (1,10,7) 1.25742 (1,11,6) -1.50678
(1,10,7): (1,9,7) -16.7992 (1,10,6) -1.25742 (1,10,8) -5.43635 (1,11,7) -3.09262
(1,10,8): (1,9,8) -5.36289 (1,10,7) 5.43635 (1,10,9) -1.61247 (1,11,8) 6.188475E-02
(1,10,9): (1,9,9) -1.72868 (1,10,8) 1.61247 (1,10,10) -0.528141 (1,11,9) 0.233827
(1,10,10): (1,9,10) -0.647948 (1,10,9) 0.528141 (1,11,10) 0.132665
(1,11,1): (1,10,1) -4.045928E-02 (1,11,2) 0.284314 (1,12,1) -6.474923E-02
(1,11,2): (1,10,2) -0.102337 (1,11,1) -0.284314 (1,11,3) 0.740311 (1,12,2) -0.153855
(1,11,3): (1,10,3) -0.225463 (1,11,2) -0.740311 (1,11,4) 1.47628 (1,12,3) -0.416064
(1,11,4): (1,10,4) -5.980611E-02 (1,11,3) -1.47628 (1,11,5) 2.23002 (1,12,4) -1.05551
(1,11,5): (1,10,5) 3.09303 (1,11,4) -2.23002 (1,11,6) 0.308600 (1,12,5) -2.30018
(1,11,6): (1,10,6) 1.50678 (1,11,5) -0.308600 (1,11,7) -0.304432 (1,12,6) -2.30393
(1,11,7): (1,10,7) 3.09262 (1,11,6) 0.304432 (1,11,8) -2.21808 (1,12,7) -2.30127
(1,11,8): (1,10,8) -6.188475E-02 (1,11,7) 2.21808 (1,11,9) -1.43825 (1,12,8) -1.05962
(1,11,9): (1,10,9) -0.233827 (1,11,8) 1.43825 (1,11,10) -0.629690 (1,12,9) -0.430206
(1,11,10): (1,10,10) -0.132665 (1,11,9) 0.629690 (1,12,10) -0.199244
(1,12,1): (1,11,1) 6.474923E-02 (1,12,2) 0.195093 (1,13,1) -7.881228E-02
(1,12,2): (1,11,2) 0.153855 (1,12,1) -0.195093 (1,12,3) 0.477276 (1,13,2) -0.174987
(1,12,3): (1,11,3) 0.416064 (1,12,2) -0.477276 (1,12,4) 0.834299 (1,13,3) -0.420771
(1,12,4): (1,11,4) 1.05551 (1,12,3) -0.834299 (1,12,5) 0.986133 (1,13,4) -0.879110
(1,12,5): (1,11,5) 2.30018 (1,12,4) -0.986133 (1,12,6) 0.304802 (1,13,5) -1.46392
(1,12,6): (1,11,6) 2.30393 (1,12,5) -0.304802 (1,12,7) -0.301710 (1,13,6) -1.61919
(1,12,7): (1,11,7) 2.30127 (1,12,6) 0.301710 (1,12,8) -0.977346 (1,13,7) -1.46527
(1,12,8): (1,11,8) 1.05962 (1,12,7) 0.977346 (1,12,9) -0.806592 (1,13,8) -0.884321
(1,12,9): (1,11,9) 0.430206 (1,12,8) 0.806592 (1,12,10) -0.398281 (1,13,9) -0.438470
(1,12,10): (1,11,10) 0.199244 (1,12,9) 0.398281 (1,13,10) -0.229709
(1,13,1): (1,12,1) 7.881228E-02 (1,13,2) 9.889931E-02 (1,14,1) -5.122543E-02
(1,13,2): (1,12,2) 0.174987 (1,13,1) -9.889931E-02 (1,13,3) 0.231355 (1,14,2) -0.108351
(1,13,3): (1,12,3) 0.420771 (1,13,2) -0.231355 (1,13,4) 0.376158 (1,14,3) -0.245325
(1,13,4): (1,12,4) 0.879110 (1,13,3) -0.376158 (1,13,5) 0.403943 (1,14,4) -0.475422
(1,13,5): (1,12,5) 1.46392 (1,13,4) -0.403943 (1,13,6) 0.151403 (1,14,5) -0.730594
(1,13,6): (1,12,6) 1.61919 (1,13,5) -0.151403 (1,13,7) -0.149652 (1,14,6) -0.822730
(1,13,7): (1,12,7) 1.46527 (1,13,6) 0.149652 (1,13,8) -0.399052 (1,14,7) -0.731516
(1,13,8): (1,12,8) 0.884321 (1,13,7) 0.399052 (1,13,9) -0.361074 (1,14,8) -0.478949
(1,13,9): (1,12,9) 0.438470 (1,13,8) 0.361074 (1,13,10) -0.189602 (1,14,9) -0.257056
(1,13,10): (1,12,10) 0.229709 (1,13,9) 0.189602 (1,14,10) -0.143420
(1,14,1): (1,13,1) 5.122543E-02 (1,14,2) 4.177880E-02 (1,15,1) -2.210147E-02
(1,14,2): (1,13,2) 0.108351 (1,14,1) -4.177880E-02 (1,14,3) 9.440022E-02 (1,15,2) -4.521470E-02
(1,14,3): (1,13,3) 0.245325 (1,14,2) -9.440022E-02 (1,14,4) 0.146285 (1,15,3) -9.865542E-02
(1,14,4): (1,13,4) 0.475422 (1,14,3) -0.146285 (1,14,5) 0.149579 (1,15,4) -0.183820
(1,14,5): (1,13,5) 0.730594 (1,14,4) -0.149579 (1,14,6) 5.986234E-02 (1,15,5) -0.272996
(1,14,6): (1,13,6) 0.822730 (1,14,5) -5.986234E-02 (1,14,7) -5.902817E-02 (1,15,6) -0.308106
(1,14,7): (1,13,7) 0.731516 (1,14,6) 5.902817E-02 (1,14,8) -0.147299 (1,15,7) -0.273409
(1,14,8): (1,13,8) 0.478949 (1,14,7) 0.147299 (1,14,9) -0.139437 (1,15,8) -0.185388
(1,14,9): (1,13,9) 0.257056 (1,14,8) 0.139437 (1,14,10) -7.604238E-02 (1,15,9) -0.103781
(1,14,10): (1,13,10) 0.143420 (1,14,9) 7.604238E-02 (1,15,10) -6.016589E-02
(1,15,1): (1,14,1) 2.210147E-02 (1,15,2) 1.866636E-02
(1,15,2): (1,14,2) 4.521470E-02 (1,15,1) -1.866636E-02 (1,15,3) 4.096177E-02
(1,15,3): (1,14,3) 9.865542E-02 (1,15,2) -4.096177E-02 (1,15,4) 6.115147E-02
(1,15,4): (1,14,4) 0.183820 (1,15,3) -6.115147E-02 (1,15,5) 6.051180E-02
(1,15,5): (1,14,5) 0.272996 (1,15,4) -6.051180E-02 (1,15,6) 2.483856E-02
(1,15,6): (1,14,6) 0.308106 (1,15,5) -2.483856E-02 (1,15,7) -2.441678E-02
(1,15,7): (1,14,7) 0.273409 (1,15,6) 2.441678E-02 (1,15,8) -5.938717E-02
(1,15,8): (1,14,8) 0.185388 (1,15,7) 5.938717E-02 (1,15,9) -5.786736E-02
(1,15,9): (1,14,9) 0.103781 (1,15,8) 5.786736E-02 (1,15,10) -3.243893E-02
(1,15,10): (1,14,10) 6.016589E-02 (1,15,9) 3.243893E-02

 WEL PACKAGE (WEL-1) FLOW RATES   PERIOD      2   STEP       45
 ----------------------------------------------------------------------------------------
   NUMBER   CELLID                    RATE       NAME                                    
 ----------------------------------------------------------------------------------------
     1      (1,8,6)              -210.20586      WEL                                     
 ----------------------------------------------------------------------------------------




 API PACKAGE (MAR) FLOW RATES   PERIOD      2   STEP       45
 -----------------------------------------------
   NUMBER   CELLID                    RATE      
 -----------------------------------------------
     1      (1,6,5)               46.666667     
     2      (1,6,6)               46.666667     
     3      (1,6,7)               46.666667     
     4      (1,10,5)              23.401954     
     5      (1,10,6)              23.401954     
     6      (1,10,7)              23.401954     
 -----------------------------------------------



1
  HEAD IN LAYER   1 AT END OF TIME STEP  45 IN STRESS PERIOD    2
  ---------------------------------------------------------------------------

            1           2           3           4           5           6           7           8           9          10
 ........................................................................................................................
   1   2.2687E-03  4.4041E-03  9.1527E-03  1.6379E-02  2.3681E-02  2.6701E-02  2.3728E-02  1.6550E-02  9.6903E-03  5.9026E-03
   2   4.8122E-03  9.7202E-03  2.1049E-02  3.9162E-02  5.8355E-02  6.6135E-02  5.8447E-02  3.9509E-02  2.2170E-02  1.2949E-02
   3   1.0850E-02  2.2899E-02  5.2014E-02  0.1016      0.1580      0.1797      0.1582      0.1024      5.4489E-02  3.0285E-02
   4   2.0595E-02  4.5672E-02  0.1101      0.2306      0.3849      0.4365      0.3853      0.2319      0.1146      5.9873E-02
   5   2.9742E-02  6.9693E-02  0.1818      0.4271      0.8289      0.9178      0.8294      0.4289      0.1882      9.0410E-02
   6   2.7220E-02  6.5882E-02  0.1894      0.5527       1.639       1.649       1.640      0.5544      0.1952      8.4810E-02
   7   6.6073E-03  4.6785E-03 -1.7172E-02 -0.1166     -0.4502      -1.570     -0.4500     -0.1159     -1.5209E-02  8.3025E-03
   8  -8.0410E-03 -4.0097E-02 -0.1743     -0.6553      -2.297      -8.609      -2.297     -0.6552     -0.1752     -4.7498E-02
   9   1.9417E-03 -9.5276E-03 -6.4839E-02 -0.2587     -0.7910      -1.984     -0.7908     -0.2581     -6.3764E-02 -9.4244E-03
  10   1.9645E-02  4.1785E-02  0.1028      0.2630      0.7688      0.6524      0.7692      0.2644      0.1073      5.5016E-02
  11   2.3682E-02  5.1966E-02  0.1251      0.2688      0.4816      0.5110      0.4820      0.2704      0.1304      6.8193E-02
  12   1.7222E-02  3.6660E-02  8.3990E-02  0.1661      0.2622      0.2918      0.2625      0.1672      8.7884E-02  4.8403E-02
  13   9.3545E-03  1.9225E-02  4.2264E-02  7.9582E-02  0.1195      0.1344      0.1197      8.0239E-02  4.4419E-02  2.5543E-02
  14   4.2367E-03  8.4111E-03  1.7834E-02  3.2416E-02  4.7303E-02  5.3258E-02  4.7386E-02  3.2726E-02  1.8827E-02  1.1237E-02
  15   2.0275E-03  3.8934E-03  7.9863E-03  1.4093E-02  2.0132E-02  2.2610E-02  2.0174E-02  1.4247E-02  8.4687E-03  5.2276E-03

 HEAD WILL BE SAVED ON UNIT 1043 AT END OF TIME STEP   45, STRESS PERIOD    2


  VOLUME BUDGET FOR ENTIRE MODEL AT END OF TIME STEP   45, STRESS PERIOD   2
  ---------------------------------------------------------------------------------------------------

     CUMULATIVE VOLUME      L**3       RATES FOR THIS TIME STEP      L**3/T          PACKAGE NAME    
     ------------------                 ------------------------                     ----------------

           IN:                                      IN:
           ---                                      ---
              STO-SS =          19.9596                STO-SS =       2.1724E-02     STORAGE                          
              STO-SY =       48873.7793                STO-SY =          45.1983     STORAGE                          
                 WEL =           0.0000                   WEL =           0.0000     WEL-1                            
                 API =      108214.0134                   API =         210.2059     MAR                              
                 CHD =       2.8247E-08                   CHD =           0.0000     CHD_0                            

            TOTAL IN =      157107.7523              TOTAL IN =         255.4258

          OUT:                                     OUT:
          ----                                     ----
              STO-SS =          25.4110                STO-SS =       2.3167E-02     STORAGE                          
              STO-SY =       48868.3279                STO-SY =          45.1968     STORAGE                          
                 WEL =      108214.0134                   WEL =         210.2059     WEL-1                            
                 API =           0.0000                   API =           0.0000     MAR                              
                 CHD =       3.0388E-08                   CHD =           0.0000     CHD_0                            

           TOTAL OUT =      157107.7523             TOTAL OUT =         255.4258

            IN - OUT =       3.4785E-07              IN - OUT =       3.9471E-09

 PERCENT DISCREPANCY =           0.00     PERCENT DISCREPANCY =           0.00




         TIME SUMMARY AT END OF TIME STEP   45 IN STRESS PERIOD    2
                    SECONDS     MINUTES      HOURS       DAYS        YEARS
                    -----------------------------------------------------------
   TIME STEP LENGTH 8.64000E+05  14400.      240.00      10.000     2.73785E-02
 STRESS PERIOD TIME 3.88800E+07 6.48000E+05  10800.      450.00      1.2320    
         TOTAL TIME 3.89664E+07 6.49440E+05  10824.      451.00      1.2348    


end timestep


start timestep kper="2" kstp="46" mode="normal"

 UBDSV1 SAVING           STO-SS ON UNIT   1042 AT TIME STEP     46, STRESS PERIOD      2
 UBDSV1 SAVING           STO-SY ON UNIT   1042 AT TIME STEP     46, STRESS PERIOD      2
 UBDSV1 SAVING     FLOW-JA-FACE ON UNIT   1042 AT TIME STEP     46, STRESS PERIOD      2
 UBDSV06 SAVING       DATA-SPDIS IN MODEL GWF              PACKAGE NPF             CONNECTED TO MODEL GWF              PACKAGE NPF              ON UNIT   1042 AT TIME STEP     46, STRESS PERIOD      2
 UBDSV06 SAVING              WEL IN MODEL GWF              PACKAGE GWF             CONNECTED TO MODEL GWF              PACKAGE WEL-1            ON UNIT   1042 AT TIME STEP     46, STRESS PERIOD      2
 UBDSV06 SAVING              API IN MODEL GWF              PACKAGE GWF             CONNECTED TO MODEL GWF              PACKAGE MAR              ON UNIT   1042 AT TIME STEP     46, STRESS PERIOD      2
 UBDSV06 SAVING              CHD IN MODEL GWF              PACKAGE GWF             CONNECTED TO MODEL GWF              PACKAGE CHD_0            ON UNIT   1042 AT TIME STEP     46, STRESS PERIOD      2

    CALCULATED INTERCELL FLOW FOR PERIOD 2 STEP 46
(1,1,1): (1,1,2) 2.305719E-02 (1,2,1) 2.737621E-02
(1,1,2): (1,1,1) -2.305719E-02 (1,1,3) 5.086847E-02 (1,2,2) 5.646610E-02
(1,1,3): (1,1,2) -5.086847E-02 (1,1,4) 7.675870E-02 (1,2,3) 0.125065
(1,1,4): (1,1,3) -7.675870E-02 (1,1,5) 7.708380E-02 (1,2,4) 0.237927
(1,1,5): (1,1,4) -7.708380E-02 (1,1,6) 3.185727E-02 (1,2,5) 0.360883
(1,1,6): (1,1,5) -3.185727E-02 (1,1,7) -3.132053E-02 (1,2,6) 0.410246
(1,1,7): (1,1,6) 3.132053E-02 (1,1,8) -7.567333E-02 (1,2,7) 0.361404
(1,1,8): (1,1,7) 7.567333E-02 (1,1,9) -7.267981E-02 (1,2,8) 0.239881
(1,1,9): (1,1,8) 7.267981E-02 (1,1,10) -4.033852E-02 (1,2,9) 0.131415
(1,1,10): (1,1,9) 4.033852E-02 (1,2,10) 7.500713E-02
(1,2,1): (1,1,1) -2.737621E-02 (1,2,2) 5.214582E-02 (1,3,1) 6.420792E-02
(1,2,2): (1,1,2) -5.646610E-02 (1,2,1) -5.214582E-02 (1,2,3) 0.119464 (1,3,2) 0.138389
(1,2,3): (1,1,3) -0.125065 (1,2,2) -0.119464 (1,2,4) 0.189566 (1,3,3) 0.322416
(1,2,4): (1,1,4) -0.237927 (1,2,3) -0.189566 (1,2,5) 0.199845 (1,3,4) 0.648389
(1,2,5): (1,1,5) -0.360883 (1,2,4) -0.199845 (1,2,6) 8.106119E-02 (1,3,5) 1.03450
(1,2,6): (1,1,6) -0.410246 (1,2,5) -8.106119E-02 (1,2,7) -8.000483E-02 (1,3,6) 1.18014
(1,2,7): (1,1,7) -0.361404 (1,2,6) 8.000483E-02 (1,2,8) -0.196999 (1,3,7) 1.03567
(1,2,8): (1,1,8) -0.239881 (1,2,7) 0.196999 (1,2,9) -0.181082 (1,3,8) 0.652816
(1,2,9): (1,1,9) -0.131415 (1,2,8) 0.181082 (1,2,10) -9.672714E-02 (1,3,9) 0.337078
(1,2,10): (1,1,10) -7.500713E-02 (1,2,9) 9.672714E-02 (1,3,10) 0.182537
(1,3,1): (1,2,1) -6.420792E-02 (1,3,2) 0.126318 (1,4,1) 0.102050
(1,3,2): (1,2,2) -0.138389 (1,3,1) -0.126318 (1,3,3) 0.303456 (1,4,2) 0.235850
(1,3,3): (1,2,3) -0.322416 (1,3,2) -0.303456 (1,3,4) 0.515116 (1,4,3) 0.598800
(1,3,4): (1,2,4) -0.648389 (1,3,3) -0.515116 (1,3,5) 0.584289 (1,4,4) 1.33638
(1,3,5): (1,2,5) -1.03450 (1,3,4) -0.584289 (1,3,6) 0.225385 (1,4,5) 2.37732
(1,3,6): (1,2,6) -1.18014 (1,3,5) -0.225385 (1,3,7) -0.223163 (1,4,6) 2.70266
(1,3,7): (1,2,7) -1.03567 (1,3,6) 0.223163 (1,3,8) -0.578177 (1,4,7) 2.37910
(1,3,8): (1,2,8) -0.652816 (1,3,7) 0.578177 (1,3,9) -0.496340 (1,4,8) 1.34306
(1,3,9): (1,2,9) -0.337078 (1,3,8) 0.496340 (1,3,10) -0.251137 (1,4,9) 0.621495
(1,3,10): (1,2,10) -0.182537 (1,3,9) 0.251137 (1,4,10) 0.307430
(1,4,1): (1,3,1) -0.102050 (1,4,2) 0.260150 (1,5,1) 9.356594E-02
(1,4,2): (1,3,2) -0.235850 (1,4,1) -0.260150 (1,4,3) 0.666646 (1,5,2) 0.243972
(1,4,3): (1,3,3) -0.598800 (1,4,2) -0.666646 (1,4,4) 1.25210 (1,5,3) 0.732087
(1,4,4): (1,3,4) -1.33638 (1,4,3) -1.25210 (1,4,5) 1.61806 (1,5,4) 2.04771
(1,4,5): (1,3,5) -2.37732 (1,4,4) -1.61806 (1,4,6) 0.544523 (1,5,5) 4.80193
(1,4,6): (1,3,6) -2.70266 (1,4,5) -0.544523 (1,4,7) -0.540547 (1,5,6) 5.24715
(1,4,7): (1,3,7) -2.37910 (1,4,6) 0.540547 (1,4,8) -1.60695 (1,5,7) 4.80351
(1,4,8): (1,3,8) -1.34306 (1,4,7) 1.60695 (1,4,9) -1.21705 (1,5,8) 2.05337
(1,4,9): (1,3,9) -0.621495 (1,4,8) 1.21705 (1,4,10) -0.565030 (1,5,9) 0.751885
(1,4,10): (1,3,10) -0.307430 (1,4,9) 0.565030 (1,5,10) 0.311192
(1,5,1): (1,4,1) -9.356594E-02 (1,5,2) 0.410803 (1,6,1) -2.933734E-02
(1,5,2): (1,4,2) -0.243972 (1,5,1) -0.410803 (1,5,3) 1.15675 (1,6,2) -4.694677E-02
(1,5,3): (1,4,3) -0.732087 (1,5,2) -1.15675 (1,5,4) 2.57400 (1,6,3) 5.841394E-02
(1,5,4): (1,4,4) -2.04771 (1,5,3) -2.57400 (1,5,5) 4.36227 (1,6,4) 1.29269
(1,5,5): (1,4,5) -4.80193 (1,5,4) -4.36227 (1,5,6) 0.975217 (1,6,5) 9.38497
(1,5,6): (1,4,6) -5.24715 (1,5,5) -0.975217 (1,5,7) -0.969690 (1,6,6) 8.46859
(1,5,7): (1,4,7) -4.80351 (1,5,6) 0.969690 (1,5,8) -4.34670 (1,6,7) 9.38469
(1,5,8): (1,4,8) -2.05337 (1,5,7) 4.34670 (1,5,9) -2.52409 (1,6,8) 1.29077
(1,5,9): (1,4,9) -0.751885 (1,5,8) 2.52409 (1,5,10) -1.00680 (1,6,9) 5.143796E-02
(1,5,10): (1,4,10) -0.311192 (1,5,9) 1.00680 (1,6,10) -6.790468E-02
(1,6,1): (1,5,1) 2.933734E-02 (1,6,2) 0.393131 (1,7,1) -0.215103
(1,6,2): (1,5,2) 4.694677E-02 (1,6,1) -0.393131 (1,6,3) 1.26332 (1,7,2) -0.632159
(1,6,3): (1,5,3) -5.841394E-02 (1,6,2) -1.26332 (1,6,4) 3.83641 (1,7,3) -2.13628
(1,6,4): (1,5,4) -1.29269 (1,6,3) -3.83641 (1,6,5) 12.6461 (1,7,4) -7.11487
(1,6,5): (1,5,5) -9.38497 (1,6,4) -12.6461 (1,6,6) 0.115718 (1,7,5) -24.3839
(1,6,6): (1,5,6) -8.46859 (1,6,5) -0.115718 (1,6,7) -0.110465 (1,7,6) -37.5507
(1,6,7): (1,5,7) -9.38469 (1,6,6) 0.110465 (1,6,8) -12.6313 (1,7,7) -24.3870
(1,6,8): (1,5,8) -1.29077 (1,6,7) 12.6313 (1,6,9) -3.79119 (1,7,8) -7.12594
(1,6,9): (1,5,9) -5.143796E-02 (1,6,8) 3.79119 (1,6,10) -1.12734 (1,7,9) -2.17893
(1,6,10): (1,5,10) 6.790468E-02 (1,6,9) 1.12734 (1,7,10) -0.793273
(1,7,1): (1,6,1) 0.215103 (1,7,2) -2.294838E-02 (1,8,1) -0.152363
(1,7,2): (1,6,2) 0.632159 (1,7,1) 2.294838E-02 (1,7,3) -0.228750 (1,8,2) -0.459489
(1,7,3): (1,6,3) 2.13628 (1,7,2) 0.228750 (1,7,4) -1.00811 (1,8,3) -1.59296
(1,7,4): (1,6,4) 7.11487 (1,7,3) 1.00811 (1,7,5) -3.30231 (1,8,4) -5.36357
(1,7,5): (1,6,5) 24.3839 (1,7,4) 3.30231 (1,7,6) -10.6765 (1,8,5) -17.6777
(1,7,6): (1,6,6) 37.5507 (1,7,5) 10.6765 (1,7,7) 10.6793 (1,8,6) -59.3266
(1,7,7): (1,6,7) 24.3870 (1,7,6) -10.6793 (1,7,8) 3.30810 (1,8,7) -17.6796
(1,7,8): (1,6,8) 7.12594 (1,7,7) -3.30810 (1,7,9) 1.02053 (1,8,8) -5.37103
(1,7,9): (1,6,9) 2.17893 (1,7,8) -1.02053 (1,7,10) 0.244991 (1,8,9) -1.62252
(1,7,10): (1,6,10) 0.793273 (1,7,9) -0.244991 (1,8,10) -0.573870
(1,8,1): (1,7,1) 0.152363 (1,8,2) -0.329677 (1,9,1) 0.101511
(1,8,2): (1,7,2) 0.459489 (1,8,1) 0.329677 (1,8,3) -1.35960 (1,9,2) 0.306748
(1,8,3): (1,7,3) 1.59296 (1,8,2) 1.35960 (1,8,4) -4.75626 (1,9,3) 1.08503
(1,8,4): (1,7,4) 5.36357 (1,8,3) 4.75626 (1,8,5) -15.3433 (1,9,4) 3.84270
(1,8,5): (1,7,5) 17.6777 (1,8,4) 15.3433 (1,8,6) -48.5212 (1,9,5) 13.7966
(1,8,6): (1,7,6) 59.3266 (1,8,5) 48.5212 (1,8,7) 48.5227 (1,9,6) 52.9053
(1,8,7): (1,7,7) 17.6796 (1,8,6) -48.5227 (1,8,8) 15.3436 (1,9,7) 13.7979
(1,8,8): (1,7,8) 5.37103 (1,8,7) -15.3436 (1,8,9) 4.74607 (1,9,8) 3.84753
(1,8,9): (1,7,9) 1.62252 (1,8,8) -4.74607 (1,8,10) 1.29018 (1,9,9) 1.10455
(1,8,10): (1,7,10) 0.573870 (1,8,9) -1.29018 (1,9,10) 0.382624
(1,9,1): (1,8,1) -0.101511 (1,9,2) -0.124393 (1,10,1) 0.183450
(1,9,2): (1,8,2) -0.306748 (1,9,1) 0.124393 (1,9,3) -0.579175 (1,10,2) 0.525415
(1,9,3): (1,8,3) -1.08503 (1,9,2) 0.579175 (1,9,4) -1.97305 (1,10,3) 1.70897
(1,9,4): (1,8,4) -3.84270 (1,9,3) 1.97305 (1,9,5) -5.23164 (1,10,4) 5.36318
(1,9,5): (1,8,5) -13.7966 (1,9,4) 5.23164 (1,9,6) -10.9789 (1,10,5) 16.7555
(1,9,6): (1,8,6) -52.9053 (1,9,5) 10.9789 (1,9,7) 10.9811 (1,10,6) 28.0052
(1,9,7): (1,8,7) -13.7979 (1,9,6) -10.9811 (1,9,8) 5.23562 (1,10,7) 16.7579
(1,9,8): (1,8,8) -3.84753 (1,9,7) -5.23562 (1,9,9) 1.97811 (1,10,8) 5.37243
(1,9,9): (1,8,9) -1.10455 (1,9,8) -1.97811 (1,9,10) 0.566909 (1,10,9) 1.74538
(1,9,10): (1,8,10) -0.382624 (1,9,9) -0.566909 (1,10,10) 0.661981
(1,10,1): (1,9,1) -0.183450 (1,10,2) 0.216680 (1,11,1) 4.530258E-02
(1,10,2): (1,9,2) -0.525415 (1,10,1) -0.216680 (1,10,3) 0.594854 (1,11,2) 0.113370
(1,10,3): (1,9,3) -1.70897 (1,10,2) -0.594854 (1,10,4) 1.59049 (1,11,3) 0.252032
(1,10,4): (1,9,4) -5.36318 (1,10,3) -1.59049 (1,10,5) 5.35183 (1,11,4) 0.115619
(1,10,5): (1,9,5) -16.7555 (1,10,4) -5.35183 (1,10,6) -1.27702 (1,11,5) -2.98308
(1,10,6): (1,9,6) -28.0052 (1,10,5) 1.27702 (1,10,7) 1.28109 (1,11,6) -1.38957
(1,10,7): (1,9,7) -16.7579 (1,10,6) -1.28109 (1,10,8) -5.34082 (1,11,7) -2.98260
(1,10,8): (1,9,8) -5.37243 (1,10,7) 5.34082 (1,10,9) -1.55805 (1,11,8) 0.118001
(1,10,9): (1,9,9) -1.74538 (1,10,8) 1.55805 (1,10,10) -0.506605 (1,11,9) 0.261469
(1,10,10): (1,9,10) -0.661981 (1,10,9) 0.506605 (1,11,10) 0.147139
(1,11,1): (1,10,1) -4.530258E-02 (1,11,2) 0.284863 (1,12,1) -6.442149E-02
(1,11,2): (1,10,2) -0.113370 (1,11,1) -0.284863 (1,11,3) 0.734163 (1,12,2) -0.150378
(1,11,3): (1,10,3) -0.252032 (1,11,2) -0.734163 (1,11,4) 1.45230 (1,12,3) -0.402500
(1,11,4): (1,10,4) -0.115619 (1,11,3) -1.45230 (1,11,5) 2.18966 (1,12,4) -1.01992
(1,11,5): (1,10,5) 2.98308 (1,11,4) -2.18966 (1,11,6) 0.293991 (1,12,5) -2.23315
(1,11,6): (1,10,6) 1.38957 (1,11,5) -0.293991 (1,11,7) -0.289483 (1,12,6) -2.22619
(1,11,7): (1,10,7) 2.98260 (1,11,6) 0.289483 (1,11,8) -2.17701 (1,12,7) -2.23429
(1,11,8): (1,10,8) -0.118001 (1,11,7) 2.17701 (1,11,9) -1.41278 (1,12,8) -1.02413
(1,11,9): (1,10,9) -0.261469 (1,11,8) 1.41278 (1,11,10) -0.621333 (1,12,9) -0.416708
(1,11,10): (1,10,10) -0.147139 (1,11,9) 0.621333 (1,12,10) -0.195166
(1,12,1): (1,11,1) 6.442149E-02 (1,12,2) 0.198793 (1,13,1) -8.142032E-02
(1,12,2): (1,11,2) 0.150378 (1,12,1) -0.198793 (1,12,3) 0.481229 (1,13,2) -0.177767
(1,12,3): (1,11,3) 0.402500 (1,12,2) -0.481229 (1,12,4) 0.832367 (1,13,3) -0.421704
(1,12,4): (1,11,4) 1.01992 (1,12,3) -0.832367 (1,12,5) 0.976912 (1,13,4) -0.872911
(1,12,5): (1,11,5) 2.23315 (1,12,4) -0.976912 (1,12,6) 0.300725 (1,13,5) -1.44625
(1,12,6): (1,11,6) 2.22619 (1,12,5) -0.300725 (1,12,7) -0.297338 (1,13,6) -1.59676
(1,12,7): (1,11,7) 2.23429 (1,12,6) 0.297338 (1,12,8) -0.967473 (1,13,7) -1.44770
(1,12,8): (1,11,8) 1.02413 (1,12,7) 0.967473 (1,12,9) -0.803141 (1,13,8) -0.878432
(1,12,9): (1,11,9) 0.416708 (1,12,8) 0.803141 (1,12,10) -0.399351 (1,13,9) -0.440153
(1,12,10): (1,11,10) 0.195166 (1,12,9) 0.399351 (1,13,10) -0.233902
(1,13,1): (1,12,1) 8.142032E-02 (1,13,2) 0.102426 (1,14,1) -5.400279E-02
(1,13,2): (1,12,2) 0.177767 (1,13,1) -0.102426 (1,13,3) 0.237150 (1,14,2) -0.112409
(1,13,3): (1,12,3) 0.421704 (1,13,2) -0.237150 (1,13,4) 0.381335 (1,14,3) -0.251075
(1,13,4): (1,12,4) 0.872911 (1,13,3) -0.381335 (1,13,5) 0.406093 (1,14,4) -0.481640
(1,13,5): (1,12,5) 1.44625 (1,13,4) -0.406093 (1,13,6) 0.152003 (1,14,5) -0.735433
(1,13,6): (1,12,6) 1.59676 (1,13,5) -0.152003 (1,13,7) -0.150058 (1,14,6) -0.826825
(1,13,7): (1,12,7) 1.44770 (1,13,6) 0.150058 (1,13,8) -0.400761 (1,14,7) -0.736441
(1,13,8): (1,12,8) 0.878432 (1,13,7) 0.400761 (1,13,9) -0.365179 (1,14,8) -0.485449
(1,13,9): (1,12,9) 0.440153 (1,13,8) 0.365179 (1,13,10) -0.193182 (1,14,9) -0.263548
(1,13,10): (1,12,10) 0.233902 (1,13,9) 0.193182 (1,14,10) -0.149127
(1,14,1): (1,13,1) 5.400279E-02 (1,14,2) 4.402578E-02 (1,15,1) -2.363783E-02
(1,14,2): (1,13,2) 0.112409 (1,14,1) -4.402578E-02 (1,14,3) 9.850301E-02 (1,15,2) -4.762357E-02
(1,14,3): (1,13,3) 0.251075 (1,14,2) -9.850301E-02 (1,14,4) 0.150997 (1,15,3) -0.102553
(1,14,4): (1,13,4) 0.481640 (1,14,3) -0.150997 (1,14,5) 0.153110 (1,15,4) -0.189190
(1,14,5): (1,13,5) 0.735433 (1,14,4) -0.153110 (1,14,6) 6.120330E-02 (1,15,5) -0.279195
(1,14,6): (1,13,6) 0.826825 (1,14,5) -6.120330E-02 (1,14,7) -6.026170E-02 (1,15,6) -0.314575
(1,14,7): (1,13,7) 0.736441 (1,14,6) 6.026170E-02 (1,14,8) -0.150584 (1,15,7) -0.279653
(1,14,8): (1,13,8) 0.485449 (1,14,7) 0.150584 (1,14,9) -0.143540 (1,15,8) -0.190906
(1,14,9): (1,13,9) 0.263548 (1,14,8) 0.143540 (1,14,10) -7.884029E-02 (1,15,9) -0.108080
(1,14,10): (1,13,10) 0.149127 (1,14,9) 7.884029E-02 (1,15,10) -6.350685E-02
(1,15,1): (1,14,1) 2.363783E-02 (1,15,2) 2.004091E-02
(1,15,2): (1,14,2) 4.762357E-02 (1,15,1) -2.004091E-02 (1,15,3) 4.357580E-02
(1,15,3): (1,14,3) 0.102553 (1,15,2) -4.357580E-02 (1,15,4) 6.439268E-02
(1,15,4): (1,14,4) 0.189190 (1,15,3) -6.439268E-02 (1,15,5) 6.321720E-02
(1,15,5): (1,14,5) 0.279195 (1,15,4) -6.321720E-02 (1,15,6) 2.591123E-02
(1,15,6): (1,14,6) 0.314575 (1,15,5) -2.591123E-02 (1,15,7) -2.542720E-02
(1,15,7): (1,14,7) 0.279653 (1,15,6) 2.542720E-02 (1,15,8) -6.194994E-02
(1,15,8): (1,14,8) 0.190906 (1,15,7) 6.194994E-02 (1,15,9) -6.075331E-02
(1,15,9): (1,14,9) 0.108080 (1,15,8) 6.075331E-02 (1,15,10) -3.428017E-02
(1,15,10): (1,14,10) 6.350685E-02 (1,15,9) 3.428017E-02

 WEL PACKAGE (WEL-1) FLOW RATES   PERIOD      2   STEP       46
 ----------------------------------------------------------------------------------------
   NUMBER   CELLID                    RATE       NAME                                    
 ----------------------------------------------------------------------------------------
     1      (1,8,6)              -209.77626      WEL                                     
 ----------------------------------------------------------------------------------------




 API PACKAGE (MAR) FLOW RATES   PERIOD      2   STEP       46
 -----------------------------------------------
   NUMBER   CELLID                    RATE      
 -----------------------------------------------
     1      (1,6,5)               46.666667     
     2      (1,6,6)               46.666667     
     3      (1,6,7)               46.666667     
     4      (1,10,5)              23.258753     
     5      (1,10,6)              23.258753     
     6      (1,10,7)              23.258753     
 -----------------------------------------------



1
  HEAD IN LAYER   1 AT END OF TIME STEP  46 IN STRESS PERIOD    2
  ---------------------------------------------------------------------------

            1           2           3           4           5           6           7           8           9          10
 ........................................................................................................................
   1   2.5207E-03  4.8253E-03  9.9071E-03  1.7570E-02  2.5258E-02  2.8435E-02  2.5312E-02  1.7764E-02  1.0509E-02  6.4791E-03
   2   5.2569E-03  1.0466E-02  2.2386E-02  4.1264E-02  6.1128E-02  6.9178E-02  6.1232E-02  4.1652E-02  2.3619E-02  1.3969E-02
   3   1.1670E-02  2.4271E-02  5.4453E-02  0.1054      0.1629      0.1850      0.1631      0.1062      5.7136E-02  3.2165E-02
   4   2.1853E-02  4.7744E-02  0.1137      0.2360      0.3917      0.4438      0.3921      0.2374      0.1186      6.2716E-02
   5   3.1181E-02  7.1967E-02  0.1855      0.4323      0.8349      0.9242      0.8354      0.4342      0.1923      9.3547E-02
   6   2.8256E-02  6.7306E-02  0.1913      0.5547       1.641       1.651       1.642      0.5565      0.1974      8.6819E-02
   7   6.8062E-03  4.5129E-03 -1.8352E-02 -0.1193     -0.4536      -1.572     -0.4533     -0.1185     -1.6304E-02  8.1746E-03
   8  -8.4198E-03 -4.1415E-02 -0.1779     -0.6622      -2.305      -8.611      -2.305     -0.6621     -0.1788     -4.9165E-02
   9   1.7295E-03 -1.0708E-02 -6.8687E-02 -0.2674     -0.8049      -1.999     -0.8047     -0.2668     -6.7614E-02 -1.0861E-02
  10   2.0038E-02  4.1616E-02  0.1005      0.2556      0.7533      0.6345      0.7537      0.2570      0.1051      5.4975E-02
  11   2.4557E-02  5.2893E-02  0.1254      0.2669      0.4759      0.5039      0.4763      0.2685      0.1309      6.9587E-02
  12   1.8131E-02  3.7935E-02  8.5649E-02  0.1675      0.2627      0.2919      0.2630      0.1688      8.9785E-02  5.0205E-02
  13   1.0003E-02  2.0225E-02  4.3837E-02  8.1661E-02  0.1218      0.1368      0.1220      8.2381E-02  4.6161E-02  2.6932E-02
  14   4.6085E-03  9.0071E-03  1.8839E-02  3.3888E-02  4.9124E-02  5.5210E-02  4.9217E-02  3.4233E-02  1.9928E-02  1.2059E-02
  15   2.2458E-03  4.2490E-03  8.6029E-03  1.5032E-02  2.1341E-02  2.3926E-02  2.1389E-02  1.5207E-02  9.1411E-03  5.7163E-03

 HEAD WILL BE SAVED ON UNIT 1043 AT END OF TIME STEP   46, STRESS PERIOD    2


  VOLUME BUDGET FOR ENTIRE MODEL AT END OF TIME STEP   46, STRESS PERIOD   2
  ---------------------------------------------------------------------------------------------------

     CUMULATIVE VOLUME      L**3       RATES FOR THIS TIME STEP      L**3/T          PACKAGE NAME    
     ------------------                 ------------------------                     ----------------

           IN:                                      IN:
           ---                                      ---
              STO-SS =          20.1729                STO-SS =       2.1329E-02     STORAGE                          
              STO-SY =       49317.4019                STO-SY =          44.3623     STORAGE                          
                 WEL =           0.0000                   WEL =           0.0000     WEL-1                            
                 API =      110311.7760                   API =         209.7763     MAR                              
                 CHD =       2.8247E-08                   CHD =           0.0000     CHD_0                            

            TOTAL IN =      159649.3508              TOTAL IN =         254.1598

          OUT:                                     OUT:
          ----                                     ----
              STO-SS =          25.6384                STO-SS =       2.2737E-02     STORAGE                          
              STO-SY =       49311.9365                STO-SY =          44.3609     STORAGE                          
                 WEL =      110311.7759                   WEL =         209.7763     WEL-1                            
                 API =           0.0000                   API =           0.0000     MAR                              
                 CHD =       3.0388E-08                   CHD =           0.0000     CHD_0                            

           TOTAL OUT =      159649.3508             TOTAL OUT =         254.1598

            IN - OUT =       3.8886E-07              IN - OUT =       4.1000E-09

 PERCENT DISCREPANCY =           0.00     PERCENT DISCREPANCY =           0.00




         TIME SUMMARY AT END OF TIME STEP   46 IN STRESS PERIOD    2
                    SECONDS     MINUTES      HOURS       DAYS        YEARS
                    -----------------------------------------------------------
   TIME STEP LENGTH 8.64000E+05  14400.      240.00      10.000     2.73785E-02
 STRESS PERIOD TIME 3.97440E+07 6.62400E+05  11040.      460.00      1.2594    
         TOTAL TIME 3.98304E+07 6.63840E+05  11064.      461.00      1.2621    


end timestep


start timestep kper="2" kstp="47" mode="normal"

 UBDSV1 SAVING           STO-SS ON UNIT   1042 AT TIME STEP     47, STRESS PERIOD      2
 UBDSV1 SAVING           STO-SY ON UNIT   1042 AT TIME STEP     47, STRESS PERIOD      2
 UBDSV1 SAVING     FLOW-JA-FACE ON UNIT   1042 AT TIME STEP     47, STRESS PERIOD      2
 UBDSV06 SAVING       DATA-SPDIS IN MODEL GWF              PACKAGE NPF             CONNECTED TO MODEL GWF              PACKAGE NPF              ON UNIT   1042 AT TIME STEP     47, STRESS PERIOD      2
 UBDSV06 SAVING              WEL IN MODEL GWF              PACKAGE GWF             CONNECTED TO MODEL GWF              PACKAGE WEL-1            ON UNIT   1042 AT TIME STEP     47, STRESS PERIOD      2
 UBDSV06 SAVING              API IN MODEL GWF              PACKAGE GWF             CONNECTED TO MODEL GWF              PACKAGE MAR              ON UNIT   1042 AT TIME STEP     47, STRESS PERIOD      2
 UBDSV06 SAVING              CHD IN MODEL GWF              PACKAGE GWF             CONNECTED TO MODEL GWF              PACKAGE CHD_0            ON UNIT   1042 AT TIME STEP     47, STRESS PERIOD      2

    CALCULATED INTERCELL FLOW FOR PERIOD 2 STEP 47
(1,1,1): (1,1,2) 2.481239E-02 (1,2,1) 2.936313E-02
(1,1,2): (1,1,1) -2.481239E-02 (1,1,3) 5.430344E-02 (1,2,2) 5.976706E-02
(1,1,3): (1,1,2) -5.430344E-02 (1,1,4) 8.122442E-02 (1,2,3) 0.130917
(1,1,4): (1,1,3) -8.122442E-02 (1,1,5) 8.102489E-02 (1,2,4) 0.247041
(1,1,5): (1,1,4) -8.102489E-02 (1,1,6) 3.345519E-02 (1,2,5) 0.372812
(1,1,6): (1,1,5) -3.345519E-02 (1,1,7) -3.284064E-02 (1,2,6) 0.423303
(1,1,7): (1,1,6) 3.284064E-02 (1,1,8) -7.943784E-02 (1,2,7) 0.373389
(1,1,8): (1,1,7) 7.943784E-02 (1,1,9) -7.670646E-02 (1,2,8) 0.249181
(1,1,9): (1,1,8) 7.670646E-02 (1,1,10) -4.280995E-02 (1,2,9) 0.137778
(1,1,10): (1,1,9) 4.280995E-02 (1,2,10) 7.953644E-02
(1,2,1): (1,1,1) -2.936313E-02 (1,2,2) 5.521495E-02 (1,3,1) 6.803354E-02
(1,2,2): (1,1,2) -5.976706E-02 (1,2,1) -5.521495E-02 (1,2,3) 0.125450 (1,3,2) 0.144681
(1,2,3): (1,1,3) -0.130917 (1,2,2) -0.125450 (1,2,4) 0.197291 (1,3,3) 0.333397
(1,2,4): (1,1,4) -0.247041 (1,2,3) -0.197291 (1,2,5) 0.206590 (1,3,4) 0.665154
(1,2,5): (1,1,5) -0.372812 (1,2,4) -0.206590 (1,2,6) 8.377846E-02 (1,3,5) 1.05605
(1,2,6): (1,1,6) -0.423303 (1,2,5) -8.377846E-02 (1,2,7) -8.258743E-02 (1,3,6) 1.20359
(1,2,7): (1,1,7) -0.373389 (1,2,6) 8.258743E-02 (1,2,8) -0.203439 (1,3,7) 1.05734
(1,2,8): (1,1,8) -0.249181 (1,2,7) 0.203439 (1,2,9) -0.188042 (1,3,8) 0.669947
(1,2,9): (1,1,9) -0.137778 (1,2,8) 0.188042 (1,2,10) -0.101030 (1,3,9) 0.349049
(1,2,10): (1,1,10) -7.953644E-02 (1,2,9) 0.101030 (1,3,10) 0.191189
(1,3,1): (1,2,1) -6.803354E-02 (1,3,2) 0.131853 (1,4,1) 0.106412
(1,3,2): (1,2,2) -0.144681 (1,3,1) -0.131853 (1,3,3) 0.314130 (1,4,2) 0.242741
(1,3,3): (1,2,3) -0.333397 (1,3,2) -0.314130 (1,3,4) 0.528607 (1,4,3) 0.610146
(1,3,4): (1,2,4) -0.665154 (1,3,3) -0.528607 (1,3,5) 0.595761 (1,4,4) 1.35247
(1,3,5): (1,2,5) -1.05605 (1,3,4) -0.595761 (1,3,6) 0.229955 (1,4,5) 2.39659
(1,3,6): (1,2,6) -1.20359 (1,3,5) -0.229955 (1,3,7) -0.227486 (1,4,6) 2.72320
(1,3,7): (1,2,7) -1.05734 (1,3,6) 0.227486 (1,3,8) -0.589089 (1,4,7) 2.39851
(1,3,8): (1,2,8) -0.669947 (1,3,7) 0.589089 (1,3,9) -0.508436 (1,4,8) 1.35960
(1,3,9): (1,2,9) -0.349049 (1,3,8) 0.508436 (1,3,10) -0.258750 (1,4,9) 0.633991
(1,3,10): (1,2,10) -0.191189 (1,3,9) 0.258750 (1,4,10) 0.316970
(1,4,1): (1,3,1) -0.106412 (1,4,2) 0.268216 (1,5,1) 9.524230E-02
(1,4,2): (1,3,2) -0.242741 (1,4,1) -0.268216 (1,4,3) 0.681790 (1,5,2) 0.245748
(1,4,3): (1,3,3) -0.610146 (1,4,2) -0.681790 (1,4,4) 1.27036 (1,5,3) 0.733050
(1,4,4): (1,3,4) -1.35247 (1,4,3) -1.27036 (1,4,5) 1.63265 (1,5,4) 2.04570
(1,4,5): (1,3,5) -2.39659 (1,4,4) -1.63265 (1,4,6) 0.550303 (1,5,5) 4.79554
(1,4,6): (1,3,6) -2.72320 (1,4,5) -0.550303 (1,4,7) -0.545940 (1,5,6) 5.23964
(1,4,7): (1,3,7) -2.39851 (1,4,6) 0.545940 (1,4,8) -1.62068 (1,5,7) 4.79721
(1,4,8): (1,3,8) -1.35960 (1,4,7) 1.62068 (1,4,9) -1.23318 (1,5,8) 2.05159
(1,4,9): (1,3,9) -0.633991 (1,4,8) 1.23318 (1,4,10) -0.575591 (1,5,9) 0.753336
(1,4,10): (1,3,10) -0.316970 (1,4,9) 0.575591 (1,5,10) 0.313832
(1,5,1): (1,4,1) -9.524230E-02 (1,5,2) 0.418979 (1,6,1) -3.352479E-02
(1,5,2): (1,4,2) -0.245748 (1,5,1) -0.418979 (1,5,3) 1.17114 (1,6,2) -5.562352E-02
(1,5,3): (1,4,3) -0.733050 (1,5,2) -1.17114 (1,5,4) 2.58947 (1,6,3) 3.998598E-02
(1,5,4): (1,4,4) -2.04570 (1,5,3) -2.58947 (1,5,5) 4.37289 (1,6,4) 1.26050
(1,5,5): (1,4,5) -4.79554 (1,5,4) -4.37289 (1,5,6) 0.979979 (1,6,5) 9.34001
(1,5,6): (1,4,6) -5.23964 (1,5,5) -0.979979 (1,5,7) -0.973980 (1,6,6) 8.42231
(1,5,7): (1,4,7) -4.79721 (1,5,6) 0.973980 (1,5,8) -4.35629 (1,6,7) 9.33966
(1,5,8): (1,4,8) -2.05159 (1,5,7) 4.35629 (1,5,9) -2.53713 (1,6,8) 1.25828
(1,5,9): (1,4,9) -0.753336 (1,5,8) 2.53713 (1,5,10) -1.01620 (1,6,9) 3.202783E-02
(1,5,10): (1,4,10) -0.313832 (1,5,9) 1.01620 (1,6,10) -7.949373E-02
(1,6,1): (1,5,1) 3.352479E-02 (1,6,2) 0.396801 (1,7,1) -0.223549
(1,6,2): (1,5,2) 5.562352E-02 (1,6,1) -0.396801 (1,6,3) 1.26785 (1,7,2) -0.648025
(1,6,3): (1,5,3) -3.998598E-02 (1,6,2) -1.26785 (1,6,4) 3.83818 (1,7,3) -2.16704
(1,6,4): (1,5,4) -1.26050 (1,6,3) -3.83818 (1,6,5) 12.6463 (1,7,4) -7.16397
(1,6,5): (1,5,5) -9.34001 (1,6,4) -12.6463 (1,6,6) 0.118896 (1,7,5) -24.4449
(1,6,6): (1,5,6) -8.42231 (1,6,5) -0.118896 (1,6,7) -0.113239 (1,7,6) -37.6036
(1,6,7): (1,5,7) -9.33966 (1,6,6) 0.113239 (1,6,8) -12.6307 (1,7,7) -24.4482
(1,6,8): (1,5,8) -1.25828 (1,6,7) 12.6307 (1,6,9) -3.79122 (1,7,8) -7.17573
(1,6,9): (1,5,9) -3.202783E-02 (1,6,8) 3.79122 (1,6,10) -1.12884 (1,7,9) -2.21174
(1,6,10): (1,5,10) 7.949373E-02 (1,6,9) 1.12884 (1,7,10) -0.814727
(1,7,1): (1,6,1) 0.223549 (1,7,2) -2.663201E-02 (1,8,1) -0.158192
(1,7,2): (1,6,2) 0.648025 (1,7,1) 2.663201E-02 (1,7,3) -0.238655 (1,8,2) -0.470926
(1,7,3): (1,6,3) 2.16704 (1,7,2) 0.238655 (1,7,4) -1.02243 (1,8,3) -1.61638
(1,7,4): (1,6,4) 7.16397 (1,7,3) 1.02243 (1,7,5) -3.30671 (1,8,4) -5.40235
(1,7,5): (1,6,5) 24.4449 (1,7,4) 3.30671 (1,7,6) -10.6615 (1,8,5) -17.7197
(1,7,6): (1,6,6) 37.6036 (1,7,5) 10.6615 (1,7,7) 10.6645 (1,8,6) -59.3169
(1,7,7): (1,6,7) 24.4482 (1,7,6) -10.6645 (1,7,8) 3.31283 (1,8,7) -17.7218
(1,7,8): (1,6,8) 7.17573 (1,7,7) -3.31283 (1,7,9) 1.03518 (1,8,8) -5.41027
(1,7,9): (1,6,9) 2.21174 (1,7,8) -1.03518 (1,7,10) 0.254368 (1,8,9) -1.64732
(1,7,10): (1,6,10) 0.814727 (1,7,9) -0.254368 (1,8,10) -0.589193
(1,8,1): (1,7,1) 0.158192 (1,8,2) -0.338956 (1,9,1) 0.103008
(1,8,2): (1,7,2) 0.470926 (1,8,1) 0.338956 (1,8,3) -1.38144 (1,9,2) 0.307713
(1,8,3): (1,7,3) 1.61638 (1,8,2) 1.38144 (1,8,4) -4.78549 (1,9,3) 1.08138
(1,8,4): (1,7,4) 5.40235 (1,8,3) 4.78549 (1,8,5) -15.3461 (1,9,4) 3.82134
(1,8,5): (1,7,5) 17.7197 (1,8,4) 15.3461 (1,8,6) -48.4254 (1,9,5) 13.7271
(1,8,6): (1,7,6) 59.3169 (1,8,5) 48.4254 (1,8,7) 48.4271 (1,9,6) 52.7165
(1,8,7): (1,7,7) 17.7218 (1,8,6) -48.4271 (1,8,8) 15.3464 (1,9,7) 13.7284
(1,8,8): (1,7,8) 5.41027 (1,8,7) -15.3464 (1,8,9) 4.77466 (1,9,8) 3.82634
(1,8,9): (1,7,9) 1.64732 (1,8,8) -4.77466 (1,8,10) 1.30894 (1,9,9) 1.10134
(1,8,10): (1,7,10) 0.589193 (1,8,9) -1.30894 (1,9,10) 0.384369
(1,9,1): (1,8,1) -0.103008 (1,9,2) -0.134186 (1,10,1) 0.189430
(1,9,2): (1,8,2) -0.307713 (1,9,1) 0.134186 (1,9,3) -0.605441 (1,10,2) 0.535201
(1,9,3): (1,8,3) -1.08138 (1,9,2) 0.605441 (1,9,4) -2.01872 (1,10,3) 1.72327
(1,9,4): (1,8,4) -3.82134 (1,9,3) 2.01872 (1,9,5) -5.27561 (1,10,4) 5.37101
(1,9,5): (1,8,5) -13.7271 (1,9,4) 5.27561 (1,9,6) -10.9694 (1,10,5) 16.7145
(1,9,6): (1,8,6) -52.7165 (1,9,5) 10.9694 (1,9,7) 10.9717 (1,10,6) 27.9260
(1,9,7): (1,8,7) -13.7284 (1,9,6) -10.9717 (1,9,8) 5.27972 (1,10,7) 16.7170
(1,9,8): (1,8,8) -3.82634 (1,9,7) -5.27972 (1,9,9) 2.02343 (1,10,8) 5.38076
(1,9,9): (1,8,9) -1.10134 (1,9,8) -2.02343 (1,9,10) 0.590475 (1,10,9) 1.76117
(1,9,10): (1,8,10) -0.384369 (1,9,9) -0.590475 (1,10,10) 0.675565
(1,10,1): (1,9,1) -0.189430 (1,10,2) 0.210653 (1,11,1) 5.028029E-02
(1,10,2): (1,9,2) -0.535201 (1,10,1) -0.210653 (1,10,3) 0.572938 (1,11,2) 0.124427
(1,10,3): (1,9,3) -1.72327 (1,10,2) -0.572938 (1,10,4) 1.53818 (1,11,3) 0.278061
(1,10,4): (1,9,4) -5.37101 (1,10,3) -1.53818 (1,10,5) 5.26097 (1,11,4) 0.169324
(1,10,5): (1,9,5) -16.7145 (1,10,4) -5.26097 (1,10,6) -1.29928 (1,11,5) -2.87843
(1,10,6): (1,9,6) -27.9260 (1,10,5) 1.29928 (1,10,7) 1.30363 (1,11,6) -1.27837
(1,10,7): (1,9,7) -16.7170 (1,10,6) -1.30363 (1,10,8) -5.24948 (1,11,7) -2.87787
(1,10,8): (1,9,8) -5.38076 (1,10,7) 5.24948 (1,10,9) -1.50511 (1,11,8) 0.172027
(1,10,9): (1,9,9) -1.76117 (1,10,8) 1.50511 (1,10,10) -0.485096 (1,11,9) 0.288617
(1,10,10): (1,9,10) -0.675565 (1,10,9) 0.485096 (1,11,10) 0.161701
(1,11,1): (1,10,1) -5.028029E-02 (1,11,2) 0.284918 (1,12,1) -6.385859E-02
(1,11,2): (1,10,2) -0.124427 (1,11,1) -0.284918 (1,11,3) 0.727240 (1,12,2) -0.146509
(1,11,3): (1,10,3) -0.278061 (1,11,2) -0.727240 (1,11,4) 1.42810 (1,12,3) -0.388469
(1,11,4): (1,10,4) -0.169324 (1,11,3) -1.42810 (1,11,5) 2.15035 (1,12,4) -0.984421
(1,11,5): (1,10,5) 2.87843 (1,11,4) -2.15035 (1,11,6) 0.279782 (1,12,5) -2.16761
(1,11,6): (1,10,6) 1.27837 (1,11,5) -0.279782 (1,11,7) -0.274923 (1,12,6) -2.15048
(1,11,7): (1,10,7) 2.87787 (1,11,6) 0.274923 (1,11,8) -2.13698 (1,12,7) -2.16879
(1,11,8): (1,10,8) -0.172027 (1,11,7) 2.13698 (1,11,9) -1.38713 (1,12,8) -0.988706
(1,11,9): (1,10,9) -0.288617 (1,11,8) 1.38713 (1,11,10) -0.612409 (1,12,9) -0.402686
(1,11,10): (1,10,10) -0.161701 (1,11,9) 0.612409 (1,12,10) -0.190533
(1,12,1): (1,11,1) 6.385859E-02 (1,12,2) 0.202155 (1,13,1) -8.388968E-02
(1,12,2): (1,11,2) 0.146509 (1,12,1) -0.202155 (1,12,3) 0.484484 (1,13,2) -0.180196
(1,12,3): (1,11,3) 0.388469 (1,12,2) -0.484484 (1,12,4) 0.829660 (1,13,3) -0.421912
(1,12,4): (1,11,4) 0.984421 (1,12,3) -0.829660 (1,12,5) 0.967341 (1,13,4) -0.865703
(1,12,5): (1,11,5) 2.16761 (1,12,4) -0.967341 (1,12,6) 0.296532 (1,13,5) -1.42764
(1,12,6): (1,11,6) 2.15048 (1,12,5) -0.296532 (1,12,7) -0.292834 (1,13,6) -1.57344
(1,12,7): (1,11,7) 2.16879 (1,12,6) 0.292834 (1,12,8) -0.957235 (1,13,7) -1.42919
(1,12,8): (1,11,8) 0.988706 (1,12,7) 0.957235 (1,12,9) -0.798919 (1,13,8) -0.871532
(1,12,9): (1,11,9) 0.402686 (1,12,8) 0.798919 (1,12,10) -0.399824 (1,13,9) -0.441086
(1,12,10): (1,11,10) 0.190533 (1,12,9) 0.399824 (1,13,10) -0.237626
(1,13,1): (1,12,1) 8.388968E-02 (1,13,2) 0.105827 (1,14,1) -5.676393E-02
(1,13,2): (1,12,2) 0.180196 (1,13,1) -0.105827 (1,13,3) 0.242620 (1,14,2) -0.116330
(1,13,3): (1,12,3) 0.421912 (1,13,2) -0.242620 (1,13,4) 0.386022 (1,14,3) -0.256424
(1,13,4): (1,12,4) 0.865703 (1,13,3) -0.386022 (1,13,5) 0.407828 (1,14,4) -0.487111
(1,13,5): (1,12,5) 1.42764 (1,13,4) -0.407828 (1,13,6) 0.152437 (1,14,5) -0.739268
(1,13,6): (1,12,6) 1.57344 (1,13,5) -0.152437 (1,13,7) -0.150284 (1,14,6) -0.829820
(1,13,7): (1,12,7) 1.42919 (1,13,6) 0.150284 (1,13,8) -0.402035 (1,14,7) -0.740368
(1,13,8): (1,12,8) 0.871532 (1,13,7) 0.402035 (1,13,9) -0.368773 (1,14,8) -0.491209
(1,13,9): (1,12,9) 0.441086 (1,13,8) 0.368773 (1,13,10) -0.196447 (1,14,9) -0.269643
(1,13,10): (1,12,10) 0.237626 (1,13,9) 0.196447 (1,14,10) -0.154662
(1,14,1): (1,13,1) 5.676393E-02 (1,14,2) 4.626736E-02 (1,15,1) -2.519806E-02
(1,14,2): (1,13,2) 0.116330 (1,14,1) -4.626736E-02 (1,14,3) 0.102545 (1,15,2) -5.001731E-02
(1,14,3): (1,13,3) 0.256424 (1,14,2) -0.102545 (1,14,4) 0.155564 (1,15,3) -0.106337
(1,14,4): (1,13,4) 0.487111 (1,14,3) -0.155564 (1,14,5) 0.156480 (1,15,4) -0.194292
(1,14,5): (1,13,5) 0.739268 (1,14,4) -0.156480 (1,14,6) 6.247516E-02 (1,15,5) -0.284982
(1,14,6): (1,13,6) 0.829820 (1,14,5) -6.247516E-02 (1,14,7) -6.141663E-02 (1,15,6) -0.320575
(1,14,7): (1,13,7) 0.740368 (1,14,6) 6.141663E-02 (1,14,8) -0.153692 (1,15,7) -0.285489
(1,14,8): (1,13,8) 0.491209 (1,14,7) 0.153692 (1,14,9) -0.147473 (1,15,8) -0.196163
(1,14,9): (1,13,9) 0.269643 (1,14,8) 0.147473 (1,14,10) -8.154919E-02 (1,15,9) -0.112275
(1,14,10): (1,13,10) 0.154662 (1,14,9) 8.154919E-02 (1,15,10) -6.683564E-02
(1,15,1): (1,14,1) 2.519806E-02 (1,15,2) 2.144903E-02
(1,15,2): (1,14,2) 5.001731E-02 (1,15,1) -2.144903E-02 (1,15,3) 4.622750E-02
(1,15,3): (1,14,3) 0.106337 (1,15,2) -4.622750E-02 (1,15,4) 6.764253E-02
(1,15,4): (1,14,4) 0.194292 (1,15,3) -6.764253E-02 (1,15,5) 6.590451E-02
(1,15,5): (1,14,5) 0.284982 (1,15,4) -6.590451E-02 (1,15,6) 2.697331E-02
(1,15,6): (1,14,6) 0.320575 (1,15,5) -2.697331E-02 (1,15,7) -2.642029E-02
(1,15,7): (1,14,7) 0.285489 (1,15,6) 2.642029E-02 (1,15,8) -6.448233E-02
(1,15,8): (1,14,8) 0.196163 (1,15,7) 6.448233E-02 (1,15,9) -6.362475E-02
(1,15,9): (1,14,9) 0.112275 (1,15,8) 6.362475E-02 (1,15,10) -3.612421E-02
(1,15,10): (1,14,10) 6.683564E-02 (1,15,9) 3.612421E-02

 WEL PACKAGE (WEL-1) FLOW RATES   PERIOD      2   STEP       47
 ----------------------------------------------------------------------------------------
   NUMBER   CELLID                    RATE       NAME                                    
 ----------------------------------------------------------------------------------------
     1      (1,8,6)              -209.36446      WEL                                     
 ----------------------------------------------------------------------------------------




 API PACKAGE (MAR) FLOW RATES   PERIOD      2   STEP       47
 -----------------------------------------------
   NUMBER   CELLID                    RATE      
 -----------------------------------------------
     1      (1,6,5)               46.666667     
     2      (1,6,6)               46.666667     
     3      (1,6,7)               46.666667     
     4      (1,10,5)              23.121487     
     5      (1,10,6)              23.121487     
     6      (1,10,7)              23.121487     
 -----------------------------------------------



1
  HEAD IN LAYER   1 AT END OF TIME STEP  47 IN STRESS PERIOD    2
  ---------------------------------------------------------------------------

            1           2           3           4           5           6           7           8           9          10
 ........................................................................................................................
   1   2.7915E-03  5.2714E-03  1.0696E-02  1.8803E-02  2.6884E-02  3.0219E-02  2.6945E-02  1.9023E-02  1.1367E-02  7.0905E-03
   2   5.7261E-03  1.1241E-02  2.3757E-02  4.3400E-02  6.3928E-02  7.2246E-02  6.4046E-02  4.3832E-02  2.5110E-02  1.5032E-02
   3   1.2521E-02  2.5672E-02  5.6908E-02  0.1092      0.1678      0.1904      0.1680      0.1101      5.9807E-02  3.4086E-02
   4   2.3138E-02  4.9826E-02  0.1172      0.2413      0.3983      0.4509      0.3987      0.2428      0.1224      6.5577E-02
   5   3.2631E-02  7.4220E-02  0.1892      0.4373      0.8406      0.9303      0.8412      0.4394      0.1963      9.6660E-02
   6   2.9289E-02  6.8699E-02  0.1931      0.5567       1.643       1.653       1.643      0.5585      0.1995      8.8786E-02
   7   6.9997E-03  4.3384E-03 -1.9517E-02 -0.1220     -0.4567      -1.574     -0.4564     -0.1211     -1.7386E-02  8.0305E-03
   8  -8.8084E-03 -4.2734E-02 -0.1815     -0.6689      -2.313      -8.614      -2.313     -0.6687     -0.1824     -5.0842E-02
   9   1.4908E-03 -1.1926E-02 -7.2542E-02 -0.2759     -0.8184      -2.013     -0.8182     -0.2753     -7.1478E-02 -1.2357E-02
  10   2.0395E-02  4.1374E-02  9.8111E-02  0.2482      0.7381      0.6171      0.7385      0.2497      0.1028      5.4831E-02
  11   2.5411E-02  5.3750E-02  0.1256      0.2647      0.4701      0.4967      0.4705      0.2664      0.1313      7.0887E-02
  12   1.9041E-02  3.9177E-02  8.7207E-02  0.1688      0.2631      0.2919      0.2634      0.1701      9.1588E-02  5.1968E-02
  13   1.0668E-02  2.1228E-02  4.5381E-02  8.3662E-02  0.1239      0.1390      0.1242      8.4448E-02  4.7879E-02  2.8328E-02
  14   4.9975E-03  9.6198E-03  1.9854E-02  3.5356E-02  5.0924E-02  5.7136E-02  5.1029E-02  3.5738E-02  2.1044E-02  1.2906E-02
  15   2.4789E-03  4.6228E-03  9.2413E-03  1.5995E-02  2.2570E-02  2.5261E-02  2.2626E-02  1.6192E-02  9.8397E-03  6.2308E-03

 HEAD WILL BE SAVED ON UNIT 1043 AT END OF TIME STEP   47, STRESS PERIOD    2


  VOLUME BUDGET FOR ENTIRE MODEL AT END OF TIME STEP   47, STRESS PERIOD   2
  ---------------------------------------------------------------------------------------------------

     CUMULATIVE VOLUME      L**3       RATES FOR THIS TIME STEP      L**3/T          PACKAGE NAME    
     ------------------                 ------------------------                     ----------------

           IN:                                      IN:
           ---                                      ---
              STO-SS =          20.3825                STO-SS =       2.0956E-02     STORAGE                          
              STO-SY =       49753.1248                STO-SY =          43.5723     STORAGE                          
                 WEL =           0.0000                   WEL =           0.0000     WEL-1                            
                 API =      112405.4206                   API =         209.3645     MAR                              
                 CHD =       2.8247E-08                   CHD =           0.0000     CHD_0                            

            TOTAL IN =      162178.9278              TOTAL IN =         252.9577

          OUT:                                     OUT:
          ----                                     ----
              STO-SS =          25.8617                STO-SS =       2.2331E-02     STORAGE                          
              STO-SY =       49747.6455                STO-SY =          43.5709     STORAGE                          
                 WEL =      112405.4205                   WEL =         209.3645     WEL-1                            
                 API =           0.0000                   API =           0.0000     MAR                              
                 CHD =       3.0388E-08                   CHD =           0.0000     CHD_0                            

           TOTAL OUT =      162178.9278             TOTAL OUT =         252.9577

            IN - OUT =       4.3167E-07              IN - OUT =       4.2838E-09

 PERCENT DISCREPANCY =           0.00     PERCENT DISCREPANCY =           0.00




         TIME SUMMARY AT END OF TIME STEP   47 IN STRESS PERIOD    2
                    SECONDS     MINUTES      HOURS       DAYS        YEARS
                    -----------------------------------------------------------
   TIME STEP LENGTH 8.64000E+05  14400.      240.00      10.000     2.73785E-02
 STRESS PERIOD TIME 4.06080E+07 6.76800E+05  11280.      470.00      1.2868    
         TOTAL TIME 4.06944E+07 6.78240E+05  11304.      471.00      1.2895    


end timestep


start timestep kper="2" kstp="48" mode="normal"

 UBDSV1 SAVING           STO-SS ON UNIT   1042 AT TIME STEP     48, STRESS PERIOD      2
 UBDSV1 SAVING           STO-SY ON UNIT   1042 AT TIME STEP     48, STRESS PERIOD      2
 UBDSV1 SAVING     FLOW-JA-FACE ON UNIT   1042 AT TIME STEP     48, STRESS PERIOD      2
 UBDSV06 SAVING       DATA-SPDIS IN MODEL GWF              PACKAGE NPF             CONNECTED TO MODEL GWF              PACKAGE NPF              ON UNIT   1042 AT TIME STEP     48, STRESS PERIOD      2
 UBDSV06 SAVING              WEL IN MODEL GWF              PACKAGE GWF             CONNECTED TO MODEL GWF              PACKAGE WEL-1            ON UNIT   1042 AT TIME STEP     48, STRESS PERIOD      2
 UBDSV06 SAVING              API IN MODEL GWF              PACKAGE GWF             CONNECTED TO MODEL GWF              PACKAGE MAR              ON UNIT   1042 AT TIME STEP     48, STRESS PERIOD      2
 UBDSV06 SAVING              CHD IN MODEL GWF              PACKAGE GWF             CONNECTED TO MODEL GWF              PACKAGE CHD_0            ON UNIT   1042 AT TIME STEP     48, STRESS PERIOD      2

    CALCULATED INTERCELL FLOW FOR PERIOD 2 STEP 48
(1,1,1): (1,1,2) 2.662759E-02 (1,2,1) 3.140494E-02
(1,1,2): (1,1,1) -2.662759E-02 (1,1,3) 5.782972E-02 (1,2,2) 6.310842E-02
(1,1,3): (1,1,2) -5.782972E-02 (1,1,4) 8.577108E-02 (1,2,3) 0.136760
(1,1,4): (1,1,3) -8.577108E-02 (1,1,5) 8.501271E-02 (1,2,4) 0.256050
(1,1,5): (1,1,4) -8.501271E-02 (1,1,6) 3.506972E-02 (1,2,5) 0.384534
(1,1,6): (1,1,5) -3.506972E-02 (1,1,7) -3.436898E-02 (1,2,6) 0.436112
(1,1,7): (1,1,6) 3.436898E-02 (1,1,8) -8.323366E-02 (1,2,7) 0.385173
(1,1,8): (1,1,7) 8.323366E-02 (1,1,9) -8.078398E-02 (1,2,8) 0.258386
(1,1,9): (1,1,8) 8.078398E-02 (1,1,10) -4.532345E-02 (1,2,9) 0.144149
(1,1,10): (1,1,9) 4.532345E-02 (1,2,10) 8.412889E-02
(1,2,1): (1,1,1) -3.140494E-02 (1,2,2) 5.832955E-02 (1,3,1) 7.191031E-02
(1,2,2): (1,1,2) -6.310842E-02 (1,2,1) -5.832955E-02 (1,2,3) 0.131477 (1,3,2) 0.150955
(1,2,3): (1,1,3) -0.136760 (1,2,2) -0.131477 (1,2,4) 0.205001 (1,3,3) 0.344186
(1,2,4): (1,1,4) -0.256050 (1,2,3) -0.205001 (1,2,5) 0.213281 (1,3,4) 0.681453
(1,2,5): (1,1,5) -0.384534 (1,2,4) -0.213281 (1,2,6) 8.647068E-02 (1,3,5) 1.07687
(1,2,6): (1,1,6) -0.436112 (1,2,5) -8.647068E-02 (1,2,7) -8.513284E-02 (1,3,6) 1.22620
(1,2,7): (1,1,7) -0.385173 (1,2,6) 8.513284E-02 (1,2,8) -0.209802 (1,3,7) 1.07827
(1,2,8): (1,1,8) -0.258386 (1,2,7) 0.209802 (1,2,9) -0.194950 (1,3,8) 0.686626
(1,2,9): (1,1,9) -0.144149 (1,2,8) 0.194950 (1,2,10) -0.105320 (1,3,9) 0.360850
(1,2,10): (1,1,10) -8.412889E-02 (1,2,9) 0.105320 (1,3,10) 0.199833
(1,3,1): (1,2,1) -7.191031E-02 (1,3,2) 0.137364 (1,4,1) 0.110732
(1,3,2): (1,2,2) -0.150955 (1,3,1) -0.137364 (1,3,3) 0.324670 (1,4,2) 0.249441
(1,3,3): (1,2,3) -0.344186 (1,3,2) -0.324670 (1,3,4) 0.541810 (1,4,3) 0.620979
(1,3,4): (1,2,4) -0.681453 (1,3,3) -0.541810 (1,3,5) 0.606919 (1,4,4) 1.36764
(1,3,5): (1,2,5) -1.07687 (1,3,4) -0.606919 (1,3,6) 0.234398 (1,4,5) 2.41460
(1,3,6): (1,2,6) -1.22620 (1,3,5) -0.234398 (1,3,7) -0.231664 (1,4,6) 2.74236
(1,3,7): (1,2,7) -1.07827 (1,3,6) 0.231664 (1,3,8) -0.599658 (1,4,7) 2.41667
(1,3,8): (1,2,8) -0.686626 (1,3,7) 0.599658 (1,3,9) -0.520199 (1,4,8) 1.37521
(1,3,9): (1,2,9) -0.360850 (1,3,8) 0.520199 (1,3,10) -0.266187 (1,4,9) 0.645972
(1,3,10): (1,2,10) -0.199833 (1,3,9) 0.266187 (1,4,10) 0.326263
(1,4,1): (1,3,1) -0.110732 (1,4,2) 0.276109 (1,5,1) 9.676441E-02
(1,4,2): (1,3,2) -0.249441 (1,4,1) -0.276109 (1,4,3) 0.696481 (1,5,2) 0.247225
(1,4,3): (1,3,3) -0.620979 (1,4,2) -0.696481 (1,4,4) 1.28791 (1,5,3) 0.733486
(1,4,4): (1,3,4) -1.36764 (1,4,3) -1.28791 (1,4,5) 1.64661 (1,5,4) 2.04303
(1,4,5): (1,3,5) -2.41460 (1,4,4) -1.64661 (1,4,6) 0.555847 (1,5,5) 4.78859
(1,4,6): (1,3,6) -2.74236 (1,4,5) -0.555847 (1,4,7) -0.551074 (1,5,6) 5.23161
(1,4,7): (1,3,7) -2.41667 (1,4,6) 0.551074 (1,4,8) -1.63374 (1,5,7) 4.79034
(1,4,8): (1,3,8) -1.37521 (1,4,7) 1.63374 (1,4,9) -1.24856 (1,5,8) 2.04914
(1,4,9): (1,3,9) -0.645972 (1,4,8) 1.24856 (1,4,10) -0.585708 (1,5,9) 0.754224
(1,4,10): (1,3,10) -0.326263 (1,4,9) 0.585708 (1,5,10) 0.316058
(1,5,1): (1,4,1) -9.676441E-02 (1,5,2) 0.426835 (1,6,1) -3.785131E-02
(1,5,2): (1,4,2) -0.247225 (1,5,1) -0.426835 (1,5,3) 1.18484 (1,6,2) -6.439243E-02
(1,5,3): (1,4,3) -0.733486 (1,5,2) -1.18484 (1,5,4) 2.60410 (1,6,3) 2.173491E-02
(1,5,4): (1,4,4) -2.04303 (1,5,3) -2.60410 (1,5,5) 4.38297 (1,6,4) 1.22915
(1,5,5): (1,4,5) -4.78859 (1,5,4) -4.38297 (1,5,6) 0.984551 (1,6,5) 9.29673
(1,5,6): (1,4,6) -5.23161 (1,5,5) -0.984551 (1,5,7) -0.978059 (1,6,6) 8.37791
(1,5,7): (1,4,7) -4.79034 (1,5,6) 0.978059 (1,5,8) -4.36533 (1,6,7) 9.29630
(1,5,8): (1,4,8) -2.04914 (1,5,7) 4.36533 (1,5,9) -2.54933 (1,6,8) 1.22662
(1,5,9): (1,4,9) -0.754224 (1,5,8) 2.54933 (1,5,10) -1.02501 (1,6,9) 1.275077E-02
(1,5,10): (1,4,10) -0.316058 (1,5,9) 1.02501 (1,6,10) -9.124492E-02
(1,6,1): (1,5,1) 3.785131E-02 (1,6,2) 0.400200 (1,7,1) -0.232014
(1,6,2): (1,5,2) 6.439243E-02 (1,6,1) -0.400200 (1,6,3) 1.27197 (1,7,2) -0.663667
(1,6,3): (1,5,3) -2.173491E-02 (1,6,2) -1.27197 (1,6,4) 3.83977 (1,7,3) -2.19692
(1,6,4): (1,5,4) -1.22915 (1,6,3) -3.83977 (1,6,5) 12.6467 (1,7,4) -7.21113
(1,6,5): (1,5,5) -9.29673 (1,6,4) -12.6467 (1,6,6) 0.122084 (1,7,5) -24.5030
(1,6,6): (1,5,6) -8.37791 (1,6,5) -0.122084 (1,6,7) -0.116008 (1,7,6) -37.6539
(1,6,7): (1,5,7) -9.29630 (1,6,6) 0.116008 (1,6,8) -12.6303 (1,7,7) -24.5065
(1,6,8): (1,5,8) -1.22662 (1,6,7) 12.6303 (1,6,9) -3.79110 (1,7,8) -7.22358
(1,6,9): (1,5,9) -1.275077E-02 (1,6,8) 3.79110 (1,6,10) -1.13005 (1,7,9) -2.24369
(1,6,10): (1,5,10) 9.124492E-02 (1,6,9) 1.13005 (1,7,10) -0.835927
(1,7,1): (1,6,1) 0.232014 (1,7,2) -3.034341E-02 (1,8,1) -0.164063
(1,7,2): (1,6,2) 0.663667 (1,7,1) 3.034341E-02 (1,7,3) -0.248322 (1,8,2) -0.482283
(1,7,3): (1,6,3) 2.19692 (1,7,2) 0.248322 (1,7,4) -1.03594 (1,8,3) -1.63934
(1,7,4): (1,6,4) 7.21113 (1,7,3) 1.03594 (1,7,5) -3.31035 (1,8,4) -5.44006
(1,7,5): (1,6,5) 24.5030 (1,7,4) 3.31035 (1,7,6) -10.6469 (1,8,5) -17.7605
(1,7,6): (1,6,6) 37.6539 (1,7,5) 10.6469 (1,7,7) 10.6501 (1,8,6) -59.3085
(1,7,7): (1,6,7) 24.5065 (1,7,6) -10.6501 (1,7,8) 3.31679 (1,8,7) -17.7628
(1,7,8): (1,6,8) 7.22358 (1,7,7) -3.31679 (1,7,9) 1.04899 (1,8,8) -5.44845
(1,7,9): (1,6,9) 2.24369 (1,7,8) -1.04899 (1,7,10) 0.263446 (1,8,9) -1.67169
(1,7,10): (1,6,10) 0.835927 (1,7,9) -0.263446 (1,8,10) -0.604439
(1,8,1): (1,7,1) 0.164063 (1,8,2) -0.348138 (1,9,1) 0.104337
(1,8,2): (1,7,2) 0.482283 (1,8,1) 0.348138 (1,8,3) -1.40266 (1,9,2) 0.308321
(1,8,3): (1,7,3) 1.63934 (1,8,2) 1.40266 (1,8,4) -4.81329 (1,9,3) 1.07711
(1,8,4): (1,7,4) 5.44006 (1,8,3) 4.81329 (1,8,5) -15.3481 (1,9,4) 3.79955
(1,8,5): (1,7,5) 17.7605 (1,8,4) 15.3481 (1,8,6) -48.3336 (1,9,5) 13.6588
(1,8,6): (1,7,6) 59.3085 (1,8,5) 48.3336 (1,8,7) 48.3354 (1,9,6) 52.5335
(1,8,7): (1,7,7) 17.7628 (1,8,6) -48.3354 (1,8,8) 15.3484 (1,9,7) 13.6602
(1,8,8): (1,7,8) 5.44845 (1,8,7) -15.3484 (1,8,9) 4.80178 (1,9,8) 3.80472
(1,8,9): (1,7,9) 1.67169 (1,8,8) -4.80178 (1,8,10) 1.32705 (1,9,9) 1.09748
(1,8,10): (1,7,10) 0.604439 (1,8,9) -1.32705 (1,9,10) 0.385631
(1,9,1): (1,8,1) -0.104337 (1,9,2) -0.144073 (1,10,1) 0.195317
(1,9,2): (1,8,2) -0.308321 (1,9,1) 0.144073 (1,9,3) -0.631360 (1,10,2) 0.544640
(1,9,3): (1,8,3) -1.07711 (1,9,2) 0.631360 (1,9,4) -2.06279 (1,10,3) 1.73673
(1,9,4): (1,8,4) -3.79955 (1,9,3) 2.06279 (1,9,5) -5.31726 (1,10,4) 5.37772
(1,9,5): (1,8,5) -13.6588 (1,9,4) 5.31726 (1,9,6) -10.9599 (1,10,5) 16.6738
(1,9,6): (1,8,6) -52.5335 (1,9,5) 10.9599 (1,9,7) 10.9624 (1,10,6) 27.8485
(1,9,7): (1,8,7) -13.6602 (1,9,6) -10.9624 (1,9,8) 5.32148 (1,10,7) 16.6765
(1,9,8): (1,8,8) -3.80472 (1,9,7) -5.32148 (1,9,9) 2.06709 (1,10,8) 5.38798
(1,9,9): (1,8,9) -1.09748 (1,9,8) -2.06709 (1,9,10) 0.613560 (1,10,9) 1.77611
(1,9,10): (1,8,10) -0.385631 (1,9,9) -0.613560 (1,10,10) 0.688702
(1,10,1): (1,9,1) -0.195317 (1,10,2) 0.204280 (1,11,1) 5.538096E-02
(1,10,2): (1,9,2) -0.544640 (1,10,1) -0.204280 (1,10,3) 0.550887 (1,11,2) 0.135486
(1,10,3): (1,9,3) -1.73673 (1,10,2) -0.550887 (1,10,4) 1.48727 (1,11,3) 0.303534
(1,10,4): (1,9,4) -5.37772 (1,10,3) -1.48727 (1,10,5) 5.17403 (1,11,4) 0.220992
(1,10,5): (1,9,5) -16.6738 (1,10,4) -5.17403 (1,10,6) -1.32046 (1,11,5) -2.77874
(1,10,6): (1,9,6) -27.8485 (1,10,5) 1.32046 (1,10,7) 1.32509 (1,11,6) -1.17276
(1,10,7): (1,9,7) -16.6765 (1,10,6) -1.32509 (1,10,8) -5.16208 (1,11,7) -2.77809
(1,10,8): (1,9,8) -5.38798 (1,10,7) 5.16208 (1,10,9) -1.45364 (1,11,8) 0.224035
(1,10,9): (1,9,9) -1.77611 (1,10,8) 1.45364 (1,10,10) -0.463673 (1,11,9) 0.315249
(1,10,10): (1,9,10) -0.688702 (1,10,9) 0.463673 (1,11,10) 0.176318
(1,11,1): (1,10,1) -5.538096E-02 (1,11,2) 0.284503 (1,12,1) -6.306342E-02
(1,11,2): (1,10,2) -0.135486 (1,11,1) -0.284503 (1,11,3) 0.719613 (1,12,2) -0.142273
(1,11,3): (1,10,3) -0.303534 (1,11,2) -0.719613 (1,11,4) 1.40376 (1,12,3) -0.374038
(1,11,4): (1,10,4) -0.220992 (1,11,3) -1.40376 (1,11,5) 2.11206 (1,12,4) -0.949092
(1,11,5): (1,10,5) 2.77874 (1,11,4) -2.11206 (1,11,6) 0.265972 (1,12,5) -2.10359
(1,11,6): (1,10,6) 1.17276 (1,11,5) -0.265972 (1,11,7) -0.260750 (1,12,6) -2.07679
(1,11,7): (1,10,7) 2.77809 (1,11,6) 0.260750 (1,11,8) -2.09798 (1,12,7) -2.10481
(1,11,8): (1,10,8) -0.224035 (1,11,7) 2.09798 (1,11,9) -1.36140 (1,12,8) -0.953443
(1,11,9): (1,10,9) -0.315249 (1,11,8) 1.36140 (1,11,10) -0.602991 (1,12,9) -0.388206
(1,11,10): (1,10,10) -0.176318 (1,11,9) 0.602991 (1,12,10) -0.185374
(1,12,1): (1,11,1) 6.306342E-02 (1,12,2) 0.205182 (1,13,1) -8.621200E-02
(1,12,2): (1,11,2) 0.142273 (1,12,1) -0.205182 (1,12,3) 0.487070 (1,13,2) -0.182277
(1,12,3): (1,11,3) 0.374038 (1,12,2) -0.487070 (1,12,4) 0.826243 (1,13,3) -0.421431
(1,12,4): (1,11,4) 0.949092 (1,12,3) -0.826243 (1,12,5) 0.957477 (1,13,4) -0.857570
(1,12,5): (1,11,5) 2.10359 (1,12,4) -0.957477 (1,12,6) 0.292246 (1,13,5) -1.40820
(1,12,6): (1,11,6) 2.07679 (1,12,5) -0.292246 (1,12,7) -0.288223 (1,13,6) -1.54935
(1,12,7): (1,11,7) 2.10481 (1,12,6) 0.288223 (1,12,8) -0.946689 (1,13,7) -1.40986
(1,12,8): (1,11,8) 0.953443 (1,12,7) 0.946689 (1,12,9) -0.793996 (1,13,8) -0.863703
(1,12,9): (1,11,9) 0.388206 (1,12,8) 0.793996 (1,12,10) -0.399737 (1,13,9) -0.441298
(1,12,10): (1,11,10) 0.185374 (1,12,9) 0.399737 (1,13,10) -0.240880
(1,13,1): (1,12,1) 8.621200E-02 (1,13,2) 0.109095 (1,14,1) -5.949895E-02
(1,13,2): (1,12,2) 0.182277 (1,13,1) -0.109095 (1,13,3) 0.247762 (1,14,2) -0.120104
(1,13,3): (1,12,3) 0.421431 (1,13,2) -0.247762 (1,13,4) 0.390235 (1,14,3) -0.261368
(1,13,4): (1,12,4) 0.857570 (1,13,3) -0.390235 (1,13,5) 0.409173 (1,14,4) -0.491851
(1,13,5): (1,12,5) 1.40820 (1,13,4) -0.409173 (1,13,6) 0.152718 (1,14,5) -0.742141
(1,13,6): (1,12,6) 1.54935 (1,13,5) -0.152718 (1,13,7) -0.150343 (1,14,6) -0.831765
(1,13,7): (1,12,7) 1.40986 (1,13,6) 0.150343 (1,13,8) -0.402901 (1,14,7) -0.743337
(1,13,8): (1,12,8) 0.863703 (1,13,7) 0.402901 (1,13,9) -0.371872 (1,14,8) -0.496245
(1,13,9): (1,12,9) 0.441298 (1,13,8) 0.371872 (1,13,10) -0.199401 (1,14,9) -0.275333
(1,13,10): (1,12,10) 0.240880 (1,13,9) 0.199401 (1,14,10) -0.160009
(1,14,1): (1,13,1) 5.949895E-02 (1,14,2) 4.849722E-02 (1,15,1) -2.677690E-02
(1,14,2): (1,13,2) 0.120104 (1,14,1) -4.849722E-02 (1,14,3) 0.106517 (1,15,2) -5.238789E-02
(1,14,3): (1,13,3) 0.261368 (1,14,2) -0.106517 (1,14,4) 0.159981 (1,15,3) -0.109996
(1,14,4): (1,13,4) 0.491851 (1,14,3) -0.159981 (1,14,5) 0.159689 (1,15,4) -0.199118
(1,14,5): (1,13,5) 0.742141 (1,14,4) -0.159689 (1,14,6) 6.367899E-02 (1,15,5) -0.290356
(1,14,6): (1,13,6) 0.831765 (1,14,5) -6.367899E-02 (1,14,7) -6.249365E-02 (1,15,6) -0.326104
(1,14,7): (1,13,7) 0.743337 (1,14,6) 6.249365E-02 (1,14,8) -0.156623 (1,15,7) -0.290913
(1,14,8): (1,13,8) 0.496245 (1,14,7) 0.156623 (1,14,9) -0.151229 (1,15,8) -0.201150
(1,14,9): (1,13,9) 0.275333 (1,14,8) 0.151229 (1,14,10) -8.416350E-02 (1,15,9) -0.116353
(1,14,10): (1,13,10) 0.160009 (1,14,9) 8.416350E-02 (1,15,10) -7.014061E-02
(1,15,1): (1,14,1) 2.677690E-02 (1,15,2) 2.288722E-02
(1,15,2): (1,14,2) 5.238789E-02 (1,15,1) -2.288722E-02 (1,15,3) 4.891028E-02
(1,15,3): (1,14,3) 0.109996 (1,15,2) -4.891028E-02 (1,15,4) 7.089371E-02
(1,15,4): (1,14,4) 0.199118 (1,15,3) -7.089371E-02 (1,15,5) 6.856859E-02
(1,15,5): (1,14,5) 0.290356 (1,15,4) -6.856859E-02 (1,15,6) 2.802304E-02
(1,15,6): (1,14,6) 0.326104 (1,15,5) -2.802304E-02 (1,15,7) -2.739389E-02
(1,15,7): (1,14,7) 0.290913 (1,15,6) 2.739389E-02 (1,15,8) -6.697879E-02
(1,15,8): (1,14,8) 0.201150 (1,15,7) 6.697879E-02 (1,15,9) -6.647423E-02
(1,15,9): (1,14,9) 0.116353 (1,15,8) 6.647423E-02 (1,15,10) -3.796563E-02
(1,15,10): (1,14,10) 7.014061E-02 (1,15,9) 3.796563E-02

 WEL PACKAGE (WEL-1) FLOW RATES   PERIOD      2   STEP       48
 ----------------------------------------------------------------------------------------
   NUMBER   CELLID                    RATE       NAME                                    
 ----------------------------------------------------------------------------------------
     1      (1,8,6)              -208.96932      WEL                                     
 ----------------------------------------------------------------------------------------




 API PACKAGE (MAR) FLOW RATES   PERIOD      2   STEP       48
 -----------------------------------------------
   NUMBER   CELLID                    RATE      
 -----------------------------------------------
     1      (1,6,5)               46.666667     
     2      (1,6,6)               46.666667     
     3      (1,6,7)               46.666667     
     4      (1,10,5)              22.989773     
     5      (1,10,6)              22.989773     
     6      (1,10,7)              22.989773     
 -----------------------------------------------



1
  HEAD IN LAYER   1 AT END OF TIME STEP  48 IN STRESS PERIOD    2
  ---------------------------------------------------------------------------

            1           2           3           4           5           6           7           8           9          10
 ........................................................................................................................
   1   3.0815E-03  5.7427E-03  1.1519E-02  2.0079E-02  2.8556E-02  3.2052E-02  2.8626E-02  2.0326E-02  1.2264E-02  7.7374E-03
   2   6.2200E-03  1.2046E-02  2.5161E-02  4.5568E-02  6.6754E-02  7.5337E-02  6.6887E-02  4.6046E-02  2.6641E-02  1.6137E-02
   3   1.3401E-02  2.7101E-02  5.9376E-02  0.1130      0.1726      0.1956      0.1729      0.1139      6.2502E-02  3.6048E-02
   4   2.4448E-02  5.1916E-02  0.1207      0.2464      0.4047      0.4578      0.4051      0.2481      0.1263      6.8453E-02
   5   3.4091E-02  7.6451E-02  0.1927      0.4421      0.8462      0.9362      0.8468      0.4443      0.2002      9.9746E-02
   6   3.0319E-02  7.0060E-02  0.1948      0.5585       1.645       1.655       1.645      0.5605      0.2015      9.0712E-02
   7   7.1876E-03  4.1555E-03 -2.0666E-02 -0.1245     -0.4597      -1.576     -0.4594     -0.1235     -1.8453E-02  7.8708E-03
   8  -9.2069E-03 -4.4053E-02 -0.1849     -0.6753      -2.321      -8.616      -2.321     -0.6752     -0.1859     -5.2526E-02
   9   1.2255E-03 -1.3180E-02 -7.6399E-02 -0.2843     -0.8315      -2.027     -0.8313     -0.2836     -7.5350E-02 -1.3909E-02
  10   2.0717E-02  4.1061E-02  9.5628E-02  0.2409      0.7234      0.6002      0.7238      0.2424      0.1005      5.4588E-02
  11   2.6240E-02  5.4536E-02  0.1256      0.2624      0.4642      0.4896      0.4647      0.2642      0.1316      7.2093E-02
  12   1.9951E-02  4.0386E-02  8.8665E-02  0.1699      0.2632      0.2916      0.2636      0.1714      9.3293E-02  5.3688E-02
  13   1.1347E-02  2.2232E-02  4.6892E-02  8.5585E-02  0.1260      0.1411      0.1262      8.6439E-02  4.9571E-02  2.9729E-02
  14   5.4034E-03  1.0248E-02  2.0878E-02  3.6817E-02  5.2702E-02  5.9033E-02  5.2820E-02  3.7240E-02  2.2173E-02  1.3775E-02
  15   2.7271E-03  5.0147E-03  9.9009E-03  1.6978E-02  2.3819E-02  2.6614E-02  2.3882E-02  1.7200E-02  1.0564E-02  6.7711E-03

 HEAD WILL BE SAVED ON UNIT 1043 AT END OF TIME STEP   48, STRESS PERIOD    2


  VOLUME BUDGET FOR ENTIRE MODEL AT END OF TIME STEP   48, STRESS PERIOD   2
  ---------------------------------------------------------------------------------------------------

     CUMULATIVE VOLUME      L**3       RATES FOR THIS TIME STEP      L**3/T          PACKAGE NAME    
     ------------------                 ------------------------                     ----------------

           IN:                                      IN:
           ---                                      ---
              STO-SS =          20.5886                STO-SS =       2.0606E-02     STORAGE                          
              STO-SY =       50181.4341                STO-SY =          42.8309     STORAGE                          
                 WEL =           0.0000                   WEL =           0.0000     WEL-1                            
                 API =      114495.1138                   API =         208.9693     MAR                              
                 CHD =       2.8247E-08                   CHD =           0.0000     CHD_0                            

            TOTAL IN =      164697.1364              TOTAL IN =         251.8209

          OUT:                                     OUT:
          ----                                     ----
              STO-SS =          26.0812                STO-SS =       2.1950E-02     STORAGE                          
              STO-SY =       50175.9414                STO-SY =          42.8296     STORAGE                          
                 WEL =      114495.1137                   WEL =         208.9693     WEL-1                            
                 API =           0.0000                   API =           0.0000     MAR                              
                 CHD =       3.0388E-08                   CHD =           0.0000     CHD_0                            

           TOTAL OUT =      164697.1364             TOTAL OUT =         251.8209

            IN - OUT =       4.7652E-07              IN - OUT =       4.4845E-09

 PERCENT DISCREPANCY =           0.00     PERCENT DISCREPANCY =           0.00




         TIME SUMMARY AT END OF TIME STEP   48 IN STRESS PERIOD    2
                    SECONDS     MINUTES      HOURS       DAYS        YEARS
                    -----------------------------------------------------------
   TIME STEP LENGTH 8.64000E+05  14400.      240.00      10.000     2.73785E-02
 STRESS PERIOD TIME 4.14720E+07 6.91200E+05  11520.      480.00      1.3142    
         TOTAL TIME 4.15584E+07 6.92640E+05  11544.      481.00      1.3169    


end timestep


start timestep kper="2" kstp="49" mode="normal"

 UBDSV1 SAVING           STO-SS ON UNIT   1042 AT TIME STEP     49, STRESS PERIOD      2
 UBDSV1 SAVING           STO-SY ON UNIT   1042 AT TIME STEP     49, STRESS PERIOD      2
 UBDSV1 SAVING     FLOW-JA-FACE ON UNIT   1042 AT TIME STEP     49, STRESS PERIOD      2
 UBDSV06 SAVING       DATA-SPDIS IN MODEL GWF              PACKAGE NPF             CONNECTED TO MODEL GWF              PACKAGE NPF              ON UNIT   1042 AT TIME STEP     49, STRESS PERIOD      2
 UBDSV06 SAVING              WEL IN MODEL GWF              PACKAGE GWF             CONNECTED TO MODEL GWF              PACKAGE WEL-1            ON UNIT   1042 AT TIME STEP     49, STRESS PERIOD      2
 UBDSV06 SAVING              API IN MODEL GWF              PACKAGE GWF             CONNECTED TO MODEL GWF              PACKAGE MAR              ON UNIT   1042 AT TIME STEP     49, STRESS PERIOD      2
 UBDSV06 SAVING              CHD IN MODEL GWF              PACKAGE GWF             CONNECTED TO MODEL GWF              PACKAGE CHD_0            ON UNIT   1042 AT TIME STEP     49, STRESS PERIOD      2

    CALCULATED INTERCELL FLOW FOR PERIOD 2 STEP 49
(1,1,1): (1,1,2) 2.850051E-02 (1,2,1) 3.349787E-02
(1,1,2): (1,1,1) -2.850051E-02 (1,1,3) 6.144267E-02 (1,2,2) 6.648359E-02
(1,1,3): (1,1,2) -6.144267E-02 (1,1,4) 9.039284E-02 (1,2,3) 0.142582
(1,1,4): (1,1,3) -9.039284E-02 (1,1,5) 8.904257E-02 (1,2,4) 0.264942
(1,1,5): (1,1,4) -8.904257E-02 (1,1,6) 3.669914E-02 (1,2,5) 0.396039
(1,1,6): (1,1,5) -3.669914E-02 (1,1,7) -3.590327E-02 (1,2,6) 0.448661
(1,1,7): (1,1,6) 3.590327E-02 (1,1,8) -8.705544E-02 (1,2,7) 0.396742
(1,1,8): (1,1,7) 8.705544E-02 (1,1,9) -8.490595E-02 (1,2,8) 0.267484
(1,1,9): (1,1,8) 8.490595E-02 (1,1,10) -4.787466E-02 (1,2,9) 0.150516
(1,1,10): (1,1,9) 4.787466E-02 (1,2,10) 8.877510E-02
(1,2,1): (1,1,1) -3.349787E-02 (1,2,2) 6.148458E-02 (1,3,1) 7.583044E-02
(1,2,2): (1,1,2) -6.648359E-02 (1,2,1) -6.148458E-02 (1,2,3) 0.137538 (1,3,2) 0.157202
(1,2,3): (1,1,3) -0.142582 (1,2,2) -0.137538 (1,2,4) 0.212689 (1,3,3) 0.354772
(1,2,4): (1,1,4) -0.264942 (1,2,3) -0.212689 (1,2,5) 0.219913 (1,3,4) 0.697282
(1,2,5): (1,1,5) -0.396039 (1,2,4) -0.219913 (1,2,6) 8.913660E-02 (1,3,5) 1.09697
(1,2,6): (1,1,6) -0.448661 (1,2,5) -8.913660E-02 (1,2,7) -8.763923E-02 (1,3,6) 1.24799
(1,2,7): (1,1,7) -0.396742 (1,2,6) 8.763923E-02 (1,2,8) -0.216084 (1,3,7) 1.09850
(1,2,8): (1,1,8) -0.267484 (1,2,7) 0.216084 (1,2,9) -0.201797 (1,3,8) 0.702848
(1,2,9): (1,1,9) -0.150516 (1,2,8) 0.201797 (1,2,10) -0.109591 (1,3,9) 0.372466
(1,2,10): (1,1,10) -8.877510E-02 (1,2,9) 0.109591 (1,3,10) 0.208452
(1,3,1): (1,2,1) -7.583044E-02 (1,3,2) 0.142844 (1,4,1) 0.115003
(1,3,2): (1,2,2) -0.157202 (1,3,1) -0.142844 (1,3,3) 0.335070 (1,4,2) 0.255945
(1,3,3): (1,2,3) -0.354772 (1,3,2) -0.335070 (1,3,4) 0.554724 (1,4,3) 0.631311
(1,3,4): (1,2,4) -0.697282 (1,3,3) -0.554724 (1,3,5) 0.617770 (1,4,4) 1.38191
(1,3,5): (1,2,5) -1.09697 (1,3,4) -0.617770 (1,3,6) 0.238719 (1,4,5) 2.43143
(1,3,6): (1,2,6) -1.24799 (1,3,5) -0.238719 (1,3,7) -0.235700 (1,4,6) 2.76023
(1,3,7): (1,2,7) -1.09850 (1,3,6) 0.235700 (1,3,8) -0.609890 (1,4,7) 2.43364
(1,3,8): (1,2,8) -0.702848 (1,3,7) 0.609890 (1,3,9) -0.531630 (1,4,8) 1.38993
(1,3,9): (1,2,9) -0.372466 (1,3,8) 0.531630 (1,3,10) -0.273445 (1,4,9) 0.657445
(1,3,10): (1,2,10) -0.208452 (1,3,9) 0.273445 (1,4,10) 0.335300
(1,4,1): (1,3,1) -0.115003 (1,4,2) 0.283825 (1,5,1) 9.813189E-02
(1,4,2): (1,3,2) -0.255945 (1,4,1) -0.283825 (1,4,3) 0.710726 (1,5,2) 0.248412
(1,4,3): (1,3,3) -0.631311 (1,4,2) -0.710726 (1,4,4) 1.30478 (1,5,3) 0.733435
(1,4,4): (1,3,4) -1.38191 (1,4,3) -1.30478 (1,4,5) 1.65997 (1,5,4) 2.03979
(1,4,5): (1,3,5) -2.43143 (1,4,4) -1.65997 (1,4,6) 0.561166 (1,5,5) 4.78115
(1,4,6): (1,3,6) -2.76023 (1,4,5) -0.561166 (1,4,7) -0.555961 (1,5,6) 5.22315
(1,4,7): (1,3,7) -2.43364 (1,4,6) 0.555961 (1,4,8) -1.64618 (1,5,7) 4.78299
(1,4,8): (1,3,8) -1.38993 (1,4,7) 1.64618 (1,4,9) -1.26324 (1,5,8) 2.04609
(1,4,9): (1,3,9) -0.657445 (1,4,8) 1.26324 (1,4,10) -0.595397 (1,5,9) 0.754586
(1,4,10): (1,3,10) -0.335300 (1,4,9) 0.595397 (1,5,10) 0.317883
(1,5,1): (1,4,1) -9.813189E-02 (1,5,2) 0.434380 (1,6,1) -4.230954E-02
(1,5,2): (1,4,2) -0.248412 (1,5,1) -0.434380 (1,5,3) 1.19790 (1,6,2) -7.323842E-02
(1,5,3): (1,4,3) -0.733435 (1,5,2) -1.19790 (1,5,4) 2.61796 (1,6,3) 3.677804E-03
(1,5,4): (1,4,4) -2.03979 (1,5,3) -2.61796 (1,5,5) 4.39255 (1,6,4) 1.19862
(1,5,5): (1,4,5) -4.78115 (1,5,4) -4.39255 (1,5,6) 0.988944 (1,6,5) 9.25503
(1,5,6): (1,4,6) -5.22315 (1,5,5) -0.988944 (1,5,7) -0.981937 (1,6,6) 8.33527
(1,5,7): (1,4,7) -4.78299 (1,5,6) 0.981937 (1,5,8) -4.37384 (1,6,7) 9.25452
(1,5,8): (1,4,8) -2.04609 (1,5,7) 4.37384 (1,5,9) -2.56075 (1,6,8) 1.19575
(1,5,9): (1,4,9) -0.754586 (1,5,8) 2.56075 (1,5,10) -1.03326 (1,6,9) -6.374951E-03
(1,5,10): (1,4,10) -0.317883 (1,5,9) 1.03326 (1,6,10) -0.103137
(1,6,1): (1,5,1) 4.230954E-02 (1,6,2) 0.403341 (1,7,1) -0.240496
(1,6,2): (1,5,2) 7.323842E-02 (1,6,1) -0.403341 (1,6,3) 1.27572 (1,7,2) -0.679090
(1,6,3): (1,5,3) -3.677804E-03 (1,6,2) -1.27572 (1,6,4) 3.84121 (1,7,3) -2.22596
(1,6,4): (1,5,4) -1.19862 (1,6,3) -3.84121 (1,6,5) 12.6474 (1,7,4) -7.25644
(1,6,5): (1,5,5) -9.25503 (1,6,4) -12.6474 (1,6,6) 0.125270 (1,7,5) -24.5584
(1,6,6): (1,5,6) -8.33527 (1,6,5) -0.125270 (1,6,7) -0.118758 (1,7,6) -37.7019
(1,6,7): (1,5,7) -9.25452 (1,6,6) 0.118758 (1,6,8) -12.6301 (1,7,7) -24.5622
(1,6,8): (1,5,8) -1.19575 (1,6,7) 12.6301 (1,6,9) -3.79084 (1,7,8) -7.26962
(1,6,9): (1,5,9) 6.374951E-03 (1,6,8) 3.79084 (1,6,10) -1.13099 (1,7,9) -2.27482
(1,6,10): (1,5,10) 0.103137 (1,6,9) 1.13099 (1,7,10) -0.856874
(1,7,1): (1,6,1) 0.240496 (1,7,2) -3.407448E-02 (1,8,1) -0.169977
(1,7,2): (1,6,2) 0.679090 (1,7,1) 3.407448E-02 (1,7,3) -0.257751 (1,8,2) -0.493561
(1,7,3): (1,6,3) 2.22596 (1,7,2) 0.257751 (1,7,4) -1.04869 (1,8,3) -1.66187
(1,7,4): (1,6,4) 7.25644 (1,7,3) 1.04869 (1,7,5) -3.31330 (1,8,4) -5.47675
(1,7,5): (1,6,5) 24.5584 (1,7,4) 3.31330 (1,7,6) -10.6327 (1,8,5) -17.8002
(1,7,6): (1,6,6) 37.7019 (1,7,5) 10.6327 (1,7,7) 10.6363 (1,8,6) -59.3015
(1,7,7): (1,6,7) 24.5622 (1,7,6) -10.6363 (1,7,8) 3.32007 (1,8,7) -17.8027
(1,7,8): (1,6,8) 7.26962 (1,7,7) -3.32007 (1,7,9) 1.06202 (1,8,8) -5.48562
(1,7,9): (1,6,9) 2.27482 (1,7,8) -1.06202 (1,7,10) 0.272226 (1,8,9) -1.69564
(1,7,10): (1,6,10) 0.856874 (1,7,9) -0.272226 (1,8,10) -0.619608
(1,8,1): (1,7,1) 0.169977 (1,8,2) -0.357220 (1,9,1) 0.105499
(1,8,2): (1,7,2) 0.493561 (1,8,1) 0.357220 (1,8,3) -1.42329 (1,9,2) 0.308590
(1,8,3): (1,7,3) 1.66187 (1,8,2) 1.42329 (1,8,4) -4.83972 (1,9,3) 1.07228
(1,8,4): (1,7,4) 5.47675 (1,8,3) 4.83972 (1,8,5) -15.3494 (1,9,4) 3.77741
(1,8,5): (1,7,5) 17.8002 (1,8,4) 15.3494 (1,8,6) -48.2454 (1,9,5) 13.5918
(1,8,6): (1,7,6) 59.3015 (1,8,5) 48.2454 (1,8,7) 48.2474 (1,9,6) 52.3561
(1,8,7): (1,7,7) 17.8027 (1,8,6) -48.2474 (1,8,8) 15.3496 (1,9,7) 13.5933
(1,8,8): (1,7,8) 5.48562 (1,8,7) -15.3496 (1,8,9) 4.82751 (1,9,8) 3.78274
(1,8,9): (1,7,9) 1.69564 (1,8,8) -4.82751 (1,8,10) 1.34451 (1,9,9) 1.09301
(1,8,10): (1,7,10) 0.619608 (1,8,9) -1.34451 (1,9,10) 0.386432
(1,9,1): (1,8,1) -0.105499 (1,9,2) -0.154030 (1,10,1) 0.201107
(1,9,2): (1,8,2) -0.308590 (1,9,1) 0.154030 (1,9,3) -0.656909 (1,10,2) 0.553736
(1,9,3): (1,8,3) -1.07228 (1,9,2) 0.656909 (1,9,4) -2.10532 (1,10,3) 1.74937
(1,9,4): (1,8,4) -3.77741 (1,9,3) 2.10532 (1,9,5) -5.35674 (1,10,4) 5.38339
(1,9,5): (1,8,5) -13.5918 (1,9,4) 5.35674 (1,9,6) -10.9505 (1,10,5) 16.6336
(1,9,6): (1,8,6) -52.3561 (1,9,5) 10.9505 (1,9,7) 10.9531 (1,10,6) 27.7727
(1,9,7): (1,8,7) -13.5933 (1,9,6) -10.9531 (1,9,8) 5.36107 (1,10,7) 16.6364
(1,9,8): (1,8,8) -3.78274 (1,9,7) -5.36107 (1,9,9) 2.10915 (1,10,8) 5.39417
(1,9,9): (1,8,9) -1.09301 (1,9,8) -2.10915 (1,9,10) 0.636145 (1,10,9) 1.79022
(1,9,10): (1,8,10) -0.386432 (1,9,9) -0.636145 (1,10,10) 0.701397
(1,10,1): (1,9,1) -0.201107 (1,10,2) 0.197592 (1,11,1) 6.059336E-02
(1,10,2): (1,9,2) -0.553736 (1,10,1) -0.197592 (1,10,3) 0.528761 (1,11,2) 0.146527
(1,10,3): (1,9,3) -1.74937 (1,10,2) -0.528761 (1,10,4) 1.43774 (1,11,3) 0.328439
(1,10,4): (1,9,4) -5.38339 (1,10,3) -1.43774 (1,10,5) 5.09077 (1,11,4) 0.270696
(1,10,5): (1,9,5) -16.6336 (1,10,4) -5.09077 (1,10,6) -1.34064 (1,11,5) -2.68372
(1,10,6): (1,9,6) -27.7727 (1,10,5) 1.34064 (1,10,7) 1.34555 (1,11,6) -1.07238
(1,10,7): (1,9,7) -16.6364 (1,10,6) -1.34555 (1,10,8) -5.07837 (1,11,7) -2.68297
(1,10,8): (1,9,8) -5.39417 (1,10,7) 5.07837 (1,10,9) -1.40363 (1,11,8) 0.274097
(1,10,9): (1,9,9) -1.79022 (1,10,8) 1.40363 (1,10,10) -0.442387 (1,11,9) 0.341353
(1,10,10): (1,9,10) -0.701397 (1,10,9) 0.442387 (1,11,10) 0.190962
(1,11,1): (1,10,1) -6.059336E-02 (1,11,2) 0.283642 (1,12,1) -6.203971E-02
(1,11,2): (1,10,2) -0.146527 (1,11,1) -0.283642 (1,11,3) 0.711348 (1,12,2) -0.137693
(1,11,3): (1,10,3) -0.328439 (1,11,2) -0.711348 (1,11,4) 1.37935 (1,12,3) -0.359267
(1,11,4): (1,10,4) -0.270696 (1,11,3) -1.37935 (1,11,5) 2.07479 (1,12,4) -0.914007
(1,11,5): (1,10,5) 2.68372 (1,11,4) -2.07479 (1,11,6) 0.252556 (1,12,5) -2.04109
(1,11,6): (1,10,6) 1.07238 (1,11,5) -0.252556 (1,11,7) -0.246961 (1,12,6) -2.00511
(1,11,7): (1,10,7) 2.68297 (1,11,6) 0.246961 (1,11,8) -2.06000 (1,12,7) -2.04234
(1,11,8): (1,10,8) -0.274097 (1,11,7) 2.06000 (1,11,9) -1.33566 (1,12,8) -0.918405
(1,11,9): (1,10,9) -0.341353 (1,11,8) 1.33566 (1,11,10) -0.593144 (1,12,9) -0.373326
(1,11,10): (1,10,10) -0.190962 (1,11,9) 0.593144 (1,12,10) -0.179721
(1,12,1): (1,11,1) 6.203971E-02 (1,12,2) 0.207880 (1,13,1) -8.837992E-02
(1,12,2): (1,11,2) 0.137693 (1,12,1) -0.207880 (1,12,3) 0.489017 (1,13,2) -0.184013
(1,12,3): (1,11,3) 0.359267 (1,12,2) -0.489017 (1,12,4) 0.822176 (1,13,3) -0.420294
(1,12,4): (1,11,4) 0.914007 (1,12,3) -0.822176 (1,12,5) 0.947369 (1,13,4) -0.848589
(1,12,5): (1,11,5) 2.04109 (1,12,4) -0.947369 (1,12,6) 0.287887 (1,13,5) -1.38803
(1,12,6): (1,11,6) 2.00511 (1,12,5) -0.287887 (1,12,7) -0.283525 (1,13,6) -1.52461
(1,12,7): (1,11,7) 2.04234 (1,12,6) 0.283525 (1,12,8) -0.935885 (1,13,7) -1.38980
(1,12,8): (1,11,8) 0.918405 (1,12,7) 0.935885 (1,12,9) -0.788436 (1,13,8) -0.855024
(1,12,9): (1,11,9) 0.373326 (1,12,8) 0.788436 (1,12,10) -0.399126 (1,13,9) -0.440821
(1,12,10): (1,11,10) 0.179721 (1,12,9) 0.399126 (1,13,10) -0.243665
(1,13,1): (1,12,1) 8.837992E-02 (1,13,2) 0.112224 (1,14,1) -6.219829E-02
(1,13,2): (1,12,2) 0.184013 (1,13,1) -0.112224 (1,13,3) 0.252577 (1,14,2) -0.123720
(1,13,3): (1,12,3) 0.420294 (1,13,2) -0.252577 (1,13,4) 0.393989 (1,14,3) -0.265905
(1,13,4): (1,12,4) 0.848589 (1,13,3) -0.393989 (1,13,5) 0.410150 (1,14,4) -0.495881
(1,13,5): (1,12,5) 1.38803 (1,13,4) -0.410150 (1,13,6) 0.152857 (1,14,5) -0.744094
(1,13,6): (1,12,6) 1.52461 (1,13,5) -0.152857 (1,13,7) -0.150246 (1,14,6) -0.832713
(1,13,7): (1,12,7) 1.38980 (1,13,6) 0.150246 (1,13,8) -0.403381 (1,14,7) -0.745388
(1,13,8): (1,12,8) 0.855024 (1,13,7) 0.403381 (1,13,9) -0.374498 (1,14,8) -0.500577
(1,13,9): (1,12,9) 0.440821 (1,13,8) 0.374498 (1,13,10) -0.202051 (1,14,9) -0.280614
(1,13,10): (1,12,10) 0.243665 (1,13,9) 0.202051 (1,14,10) -0.165152
(1,14,1): (1,13,1) 6.219829E-02 (1,14,2) 5.070935E-02 (1,15,1) -2.836904E-02
(1,14,2): (1,13,2) 0.123720 (1,14,1) -5.070935E-02 (1,14,3) 0.110410 (1,15,2) -5.472761E-02
(1,14,3): (1,13,3) 0.265905 (1,14,2) -0.110410 (1,14,4) 0.164243 (1,15,3) -0.113522
(1,14,4): (1,13,4) 0.495881 (1,14,3) -0.164243 (1,14,5) 0.162739 (1,15,4) -0.203661
(1,14,5): (1,13,5) 0.744094 (1,14,4) -0.162739 (1,14,6) 6.481608E-02 (1,15,5) -0.295315
(1,14,6): (1,13,6) 0.832713 (1,14,5) -6.481608E-02 (1,14,7) -6.349370E-02 (1,15,6) -0.331166
(1,14,7): (1,13,7) 0.745388 (1,14,6) 6.349370E-02 (1,14,8) -0.159379 (1,15,7) -0.295926
(1,14,8): (1,13,8) 0.500577 (1,14,7) 0.159379 (1,14,9) -0.154806 (1,15,8) -0.205860
(1,14,9): (1,13,9) 0.280614 (1,14,8) 0.154806 (1,14,10) -8.667845E-02 (1,15,9) -0.120305
(1,14,10): (1,13,10) 0.165152 (1,14,9) 8.667845E-02 (1,15,10) -7.341051E-02
(1,15,1): (1,14,1) 2.836904E-02 (1,15,2) 2.435184E-02
(1,15,2): (1,14,2) 5.472761E-02 (1,15,1) -2.435184E-02 (1,15,3) 5.161762E-02
(1,15,3): (1,14,3) 0.113522 (1,15,2) -5.161762E-02 (1,15,4) 7.413915E-02
(1,15,4): (1,14,4) 0.203661 (1,15,3) -7.413915E-02 (1,15,5) 7.120464E-02
(1,15,5): (1,14,5) 0.295315 (1,15,4) -7.120464E-02 (1,15,6) 2.905883E-02
(1,15,6): (1,14,6) 0.331166 (1,15,5) -2.905883E-02 (1,15,7) -2.834599E-02
(1,15,7): (1,14,7) 0.295926 (1,15,6) 2.834599E-02 (1,15,8) -6.943413E-02
(1,15,8): (1,14,8) 0.205860 (1,15,7) 6.943413E-02 (1,15,9) -6.929470E-02
(1,15,9): (1,14,9) 0.120305 (1,15,8) 6.929470E-02 (1,15,10) -3.979918E-02
(1,15,10): (1,14,10) 7.341051E-02 (1,15,9) 3.979918E-02

 WEL PACKAGE (WEL-1) FLOW RATES   PERIOD      2   STEP       49
 ----------------------------------------------------------------------------------------
   NUMBER   CELLID                    RATE       NAME                                    
 ----------------------------------------------------------------------------------------
     1      (1,8,6)              -208.58979      WEL                                     
 ----------------------------------------------------------------------------------------




 API PACKAGE (MAR) FLOW RATES   PERIOD      2   STEP       49
 -----------------------------------------------
   NUMBER   CELLID                    RATE      
 -----------------------------------------------
     1      (1,6,5)               46.666667     
     2      (1,6,6)               46.666667     
     3      (1,6,7)               46.666667     
     4      (1,10,5)              22.863262     
     5      (1,10,6)              22.863262     
     6      (1,10,7)              22.863262     
 -----------------------------------------------



1
  HEAD IN LAYER   1 AT END OF TIME STEP  49 IN STRESS PERIOD    2
  ---------------------------------------------------------------------------

            1           2           3           4           5           6           7           8           9          10
 ........................................................................................................................
   1   3.3913E-03  6.2396E-03  1.2376E-02  2.1396E-02  3.0274E-02  3.3931E-02  3.0353E-02  2.1674E-02  1.3202E-02  8.4203E-03
   2   6.7388E-03  1.2879E-02  2.6597E-02  4.7764E-02  6.9604E-02  7.8448E-02  6.9752E-02  4.8294E-02  2.8211E-02  1.7283E-02
   3   1.4311E-02  2.8555E-02  6.1856E-02  0.1167      0.1774      0.2008      0.1777      0.1178      6.5216E-02  3.8049E-02
   4   2.5782E-02  5.4012E-02  0.1242      0.2515      0.4109      0.4646      0.4114      0.2533      0.1301      7.1341E-02
   5   3.5560E-02  7.8659E-02  0.1961      0.4467      0.8515      0.9419      0.8522      0.4491      0.2041      0.1028    
   6   3.1344E-02  7.1392E-02  0.1965      0.5602       1.646       1.657       1.647      0.5623      0.2034      9.2597E-02
   7   7.3698E-03  3.9648E-03 -2.1800E-02 -0.1269     -0.4625      -1.577     -0.4622     -0.1259     -1.9506E-02  7.6961E-03
   8  -9.6154E-03 -4.5372E-02 -0.1883     -0.6816      -2.329      -8.618      -2.329     -0.6815     -0.1894     -5.4217E-02
   9   9.3352E-04 -1.4468E-02 -8.0254E-02 -0.2925     -0.8443      -2.040     -0.8440     -0.2918     -7.9227E-02 -1.5514E-02
  10   2.1002E-02  4.0681E-02  9.3070E-02  0.2336      0.7089      0.5837      0.7094      0.2352      9.8057E-02  5.4247E-02
  11   2.7045E-02  5.5253E-02  0.1255      0.2599      0.4583      0.4824      0.4589      0.2619      0.1317      7.3205E-02
  12   2.0858E-02  4.1560E-02  9.0025E-02  0.1709      0.2632      0.2911      0.2636      0.1724      9.4901E-02  5.5363E-02
  13   1.2038E-02  2.3235E-02  4.8371E-02  8.7428E-02  0.1279      0.1430      0.1282      8.8355E-02  5.1233E-02  3.1131E-02
  14   5.8258E-03  1.0891E-02  2.1908E-02  3.8270E-02  5.4456E-02  6.0898E-02  5.4587E-02  3.8736E-02  2.3315E-02  1.4667E-02
  15   2.9906E-03  5.4244E-03  1.0581E-02  1.7981E-02  2.5084E-02  2.7982E-02  2.5155E-02  1.8229E-02  1.1312E-02  7.3368E-03

 HEAD WILL BE SAVED ON UNIT 1043 AT END OF TIME STEP   49, STRESS PERIOD    2


  VOLUME BUDGET FOR ENTIRE MODEL AT END OF TIME STEP   49, STRESS PERIOD   2
  ---------------------------------------------------------------------------------------------------

     CUMULATIVE VOLUME      L**3       RATES FOR THIS TIME STEP      L**3/T          PACKAGE NAME    
     ------------------                 ------------------------                     ----------------

           IN:                                      IN:
           ---                                      ---
              STO-SS =          20.7913                STO-SS =       2.0277E-02     STORAGE                          
              STO-SY =       50602.7603                STO-SY =          42.1326     STORAGE                          
                 WEL =           0.0000                   WEL =           0.0000     WEL-1                            
                 API =      116581.0116                   API =         208.5898     MAR                              
                 CHD =       2.8247E-08                   CHD =           0.0000     CHD_0                            

            TOTAL IN =      167204.5632              TOTAL IN =         250.7427

          OUT:                                     OUT:
          ----                                     ----
              STO-SS =          26.2972                STO-SS =       2.1592E-02     STORAGE                          
              STO-SY =       50597.2545                STO-SY =          42.1313     STORAGE                          
                 WEL =      116581.0116                   WEL =         208.5898     WEL-1                            
                 API =           0.0000                   API =           0.0000     MAR                              
                 CHD =       3.0388E-08                   CHD =           0.0000     CHD_0                            

           TOTAL OUT =      167204.5632             TOTAL OUT =         250.7427

            IN - OUT =       5.2355E-07              IN - OUT =       4.7033E-09

 PERCENT DISCREPANCY =           0.00     PERCENT DISCREPANCY =           0.00




         TIME SUMMARY AT END OF TIME STEP   49 IN STRESS PERIOD    2
                    SECONDS     MINUTES      HOURS       DAYS        YEARS
                    -----------------------------------------------------------
   TIME STEP LENGTH 8.64000E+05  14400.      240.00      10.000     2.73785E-02
 STRESS PERIOD TIME 4.23360E+07 7.05600E+05  11760.      490.00      1.3415    
         TOTAL TIME 4.24224E+07 7.07040E+05  11784.      491.00      1.3443    


end timestep


start timestep kper="2" kstp="50" mode="normal"

 UBDSV1 SAVING           STO-SS ON UNIT   1042 AT TIME STEP     50, STRESS PERIOD      2
 UBDSV1 SAVING           STO-SY ON UNIT   1042 AT TIME STEP     50, STRESS PERIOD      2
 UBDSV1 SAVING     FLOW-JA-FACE ON UNIT   1042 AT TIME STEP     50, STRESS PERIOD      2
 UBDSV06 SAVING       DATA-SPDIS IN MODEL GWF              PACKAGE NPF             CONNECTED TO MODEL GWF              PACKAGE NPF              ON UNIT   1042 AT TIME STEP     50, STRESS PERIOD      2
 UBDSV06 SAVING              WEL IN MODEL GWF              PACKAGE GWF             CONNECTED TO MODEL GWF              PACKAGE WEL-1            ON UNIT   1042 AT TIME STEP     50, STRESS PERIOD      2
 UBDSV06 SAVING              API IN MODEL GWF              PACKAGE GWF             CONNECTED TO MODEL GWF              PACKAGE MAR              ON UNIT   1042 AT TIME STEP     50, STRESS PERIOD      2
 UBDSV06 SAVING              CHD IN MODEL GWF              PACKAGE GWF             CONNECTED TO MODEL GWF              PACKAGE CHD_0            ON UNIT   1042 AT TIME STEP     50, STRESS PERIOD      2

    CALCULATED INTERCELL FLOW FOR PERIOD 2 STEP 50
(1,1,1): (1,1,2) 3.042875E-02 (1,2,1) 3.563800E-02
(1,1,2): (1,1,1) -3.042875E-02 (1,1,3) 6.513751E-02 (1,2,2) 6.988613E-02
(1,1,3): (1,1,2) -6.513751E-02 (1,1,4) 9.508389E-02 (1,2,3) 0.148375
(1,1,4): (1,1,3) -9.508389E-02 (1,1,5) 9.310988E-02 (1,2,4) 0.273706
(1,1,5): (1,1,4) -9.310988E-02 (1,1,6) 3.834179E-02 (1,2,5) 0.407316
(1,1,6): (1,1,5) -3.834179E-02 (1,1,7) -3.744130E-02 (1,2,6) 0.460943
(1,1,7): (1,1,6) 3.744130E-02 (1,1,8) -9.089796E-02 (1,2,7) 0.408087
(1,1,8): (1,1,7) 9.089796E-02 (1,1,9) -8.906607E-02 (1,2,8) 0.276463
(1,1,9): (1,1,8) 8.906607E-02 (1,1,10) -5.045929E-02 (1,2,9) 0.156870
(1,1,10): (1,1,9) 5.045929E-02 (1,2,10) 9.346580E-02
(1,2,1): (1,1,1) -3.563800E-02 (1,2,2) 6.467509E-02 (1,3,1) 7.978623E-02
(1,2,2): (1,1,2) -6.988613E-02 (1,2,1) -6.467509E-02 (1,2,3) 0.143623 (1,3,2) 0.163410
(1,2,3): (1,1,3) -0.148375 (1,2,2) -0.143623 (1,2,4) 0.220349 (1,3,3) 0.365147
(1,2,4): (1,1,4) -0.273706 (1,2,3) -0.220349 (1,2,5) 0.226482 (1,3,4) 0.712640
(1,2,5): (1,1,5) -0.407316 (1,2,4) -0.226482 (1,2,6) 9.177518E-02 (1,3,5) 1.11636
(1,2,6): (1,1,6) -0.460943 (1,2,5) -9.177518E-02 (1,2,7) -9.010501E-02 (1,3,6) 1.26898
(1,2,7): (1,1,7) -0.408087 (1,2,6) 9.010501E-02 (1,2,8) -0.222283 (1,3,7) 1.11802
(1,2,8): (1,1,8) -0.276463 (1,2,7) 0.222283 (1,2,9) -0.208578 (1,3,8) 0.718611
(1,2,9): (1,1,9) -0.156870 (1,2,8) 0.208578 (1,2,10) -0.113837 (1,3,9) 0.383887
(1,2,10): (1,1,10) -9.346580E-02 (1,2,9) 0.113837 (1,3,10) 0.217032
(1,3,1): (1,2,1) -7.978623E-02 (1,3,2) 0.148287 (1,4,1) 0.119216
(1,3,2): (1,2,2) -0.163410 (1,3,1) -0.148287 (1,3,3) 0.345321 (1,4,2) 0.262248
(1,3,3): (1,2,3) -0.365147 (1,3,2) -0.345321 (1,3,4) 0.567351 (1,4,3) 0.641152
(1,3,4): (1,2,4) -0.712640 (1,3,3) -0.567351 (1,3,5) 0.628320 (1,4,4) 1.39533
(1,3,5): (1,2,5) -1.11636 (1,3,4) -0.628320 (1,3,6) 0.242919 (1,4,5) 2.44713
(1,3,6): (1,2,6) -1.26898 (1,3,5) -0.242919 (1,3,7) -0.239598 (1,4,6) 2.77688
(1,3,7): (1,2,7) -1.11802 (1,3,6) 0.239598 (1,3,8) -0.619793 (1,4,7) 2.44950
(1,3,8): (1,2,8) -0.718611 (1,3,7) 0.619793 (1,3,9) -0.542731 (1,4,8) 1.40381
(1,3,9): (1,2,9) -0.383887 (1,3,8) 0.542731 (1,3,10) -0.280522 (1,4,9) 0.668421
(1,3,10): (1,2,10) -0.217032 (1,3,9) 0.280522 (1,4,10) 0.344074
(1,4,1): (1,3,1) -0.119216 (1,4,2) 0.291360 (1,5,1) 9.934490E-02
(1,4,2): (1,3,2) -0.262248 (1,4,1) -0.291360 (1,4,3) 0.724531 (1,5,2) 0.249323
(1,4,3): (1,3,3) -0.641152 (1,4,2) -0.724531 (1,4,4) 1.32100 (1,5,3) 0.732932
(1,4,4): (1,3,4) -1.39533 (1,4,3) -1.32100 (1,4,5) 1.67277 (1,5,4) 2.03602
(1,4,5): (1,3,5) -2.44713 (1,4,4) -1.67277 (1,4,6) 0.566273 (1,5,5) 4.77330
(1,4,6): (1,3,6) -2.77688 (1,4,5) -0.566273 (1,4,7) -0.560612 (1,5,6) 5.21432
(1,4,7): (1,3,7) -2.44950 (1,4,6) 0.560612 (1,4,8) -1.65802 (1,5,7) 4.77522
(1,4,8): (1,3,8) -1.40381 (1,4,7) 1.65802 (1,4,9) -1.27724 (1,5,8) 2.04252
(1,4,9): (1,3,9) -0.668421 (1,4,8) 1.27724 (1,4,10) -0.604669 (1,5,9) 0.754457
(1,4,10): (1,3,10) -0.344074 (1,4,9) 0.604669 (1,5,10) 0.319322
(1,5,1): (1,4,1) -9.934490E-02 (1,5,2) 0.441621 (1,6,1) -4.689228E-02
(1,5,2): (1,4,2) -0.249323 (1,5,1) -0.441621 (1,5,3) 1.21035 (1,6,2) -8.214767E-02
(1,5,3): (1,4,3) -0.732932 (1,5,2) -1.21035 (1,5,4) 2.63109 (1,6,3) -1.417315E-02
(1,5,4): (1,4,4) -2.03602 (1,5,3) -2.63109 (1,5,5) 4.40167 (1,6,4) 1.16890
(1,5,5): (1,4,5) -4.77330 (1,5,4) -4.40167 (1,5,6) 0.993169 (1,6,5) 9.21484
(1,5,6): (1,4,6) -5.21432 (1,5,5) -0.993169 (1,5,7) -0.985624 (1,6,6) 8.29429
(1,5,7): (1,4,7) -4.77522 (1,5,6) 0.985624 (1,5,8) -4.38186 (1,6,7) 9.21424
(1,5,8): (1,4,8) -2.04252 (1,5,7) 4.38186 (1,5,9) -2.57145 (1,6,8) 1.16567
(1,5,9): (1,4,9) -0.754457 (1,5,8) 2.57145 (1,5,10) -1.04099 (1,6,9) -2.533831E-02
(1,5,10): (1,4,10) -0.319322 (1,5,9) 1.04099 (1,6,10) -0.115150
(1,6,1): (1,5,1) 4.689228E-02 (1,6,2) 0.406242 (1,7,1) -0.248989
(1,6,2): (1,5,2) 8.214767E-02 (1,6,1) -0.406242 (1,6,3) 1.27911 (1,7,2) -0.694295
(1,6,3): (1,5,3) 1.417315E-02 (1,6,2) -1.27911 (1,6,4) 3.84253 (1,7,3) -2.25418
(1,6,4): (1,5,4) -1.16890 (1,6,3) -3.84253 (1,6,5) 12.6482 (1,7,4) -7.30004
(1,6,5): (1,5,5) -9.21484 (1,6,4) -12.6482 (1,6,6) 0.128442 (1,7,5) -24.6113
(1,6,6): (1,5,6) -8.29429 (1,6,5) -0.128442 (1,6,7) -0.121480 (1,7,6) -37.7476
(1,6,7): (1,5,7) -9.21424 (1,6,6) 0.121480 (1,6,8) -12.6300 (1,7,7) -24.6154
(1,6,8): (1,5,8) -1.16567 (1,6,7) 12.6300 (1,6,9) -3.79048 (1,7,8) -7.31395
(1,6,9): (1,5,9) 2.533831E-02 (1,6,8) 3.79048 (1,6,10) -1.13169 (1,7,9) -2.30516
(1,6,10): (1,5,10) 0.115150 (1,6,9) 1.13169 (1,7,10) -0.877569
(1,7,1): (1,6,1) 0.248989 (1,7,2) -3.781769E-02 (1,8,1) -0.175932
(1,7,2): (1,6,2) 0.694295 (1,7,1) 3.781769E-02 (1,7,3) -0.266944 (1,8,2) -0.504763
(1,7,3): (1,6,3) 2.25418 (1,7,2) 0.266944 (1,7,4) -1.06073 (1,8,3) -1.68397
(1,7,4): (1,6,4) 7.30004 (1,7,3) 1.06073 (1,7,5) -3.31566 (1,8,4) -5.51246
(1,7,5): (1,6,5) 24.6113 (1,7,4) 3.31566 (1,7,6) -10.6191 (1,8,5) -17.8389
(1,7,6): (1,6,6) 37.7476 (1,7,5) 10.6191 (1,7,7) 10.6228 (1,8,6) -59.2956
(1,7,7): (1,6,7) 24.6154 (1,7,6) -10.6228 (1,7,8) 3.32275 (1,8,7) -17.8415
(1,7,8): (1,6,8) 7.31395 (1,7,7) -3.32275 (1,7,9) 1.07431 (1,8,8) -5.52183
(1,7,9): (1,6,9) 2.30516 (1,7,8) -1.07431 (1,7,10) 0.280713 (1,8,9) -1.71919
(1,7,10): (1,6,10) 0.877569 (1,7,9) -0.280713 (1,8,10) -0.634701
(1,8,1): (1,7,1) 0.175932 (1,8,2) -0.366195 (1,9,1) 0.106497
(1,8,2): (1,7,2) 0.504763 (1,8,1) 0.366195 (1,8,3) -1.44334 (1,9,2) 0.308538
(1,8,3): (1,7,3) 1.68397 (1,8,2) 1.44334 (1,8,4) -4.86488 (1,9,3) 1.06694
(1,8,4): (1,7,4) 5.51246 (1,8,3) 4.86488 (1,8,5) -15.3500 (1,9,4) 3.75502
(1,8,5): (1,7,5) 17.8389 (1,8,4) 15.3500 (1,8,6) -48.1608 (1,9,5) 13.5262
(1,8,6): (1,7,6) 59.2956 (1,8,5) 48.1608 (1,8,7) 48.1629 (1,9,6) 52.1841
(1,8,7): (1,7,7) 17.8415 (1,8,6) -48.1629 (1,8,8) 15.3502 (1,9,7) 13.5277
(1,8,8): (1,7,8) 5.52183 (1,8,7) -15.3502 (1,8,9) 4.85193 (1,9,8) 3.76050
(1,8,9): (1,7,9) 1.71919 (1,8,8) -4.85193 (1,8,10) 1.36135 (1,9,9) 1.08800
(1,8,10): (1,7,10) 0.634701 (1,8,9) -1.36135 (1,9,10) 0.386792
(1,9,1): (1,8,1) -0.106497 (1,9,2) -0.164037 (1,10,1) 0.206795
(1,9,2): (1,8,2) -0.308538 (1,9,1) 0.164037 (1,9,3) -0.682066 (1,10,2) 0.562497
(1,9,3): (1,8,3) -1.06694 (1,9,2) 0.682066 (1,9,4) -2.14637 (1,10,3) 1.76124
(1,9,4): (1,8,4) -3.75502 (1,9,3) 2.14637 (1,9,5) -5.39421 (1,10,4) 5.38810
(1,9,5): (1,8,5) -13.5262 (1,9,4) 5.39421 (1,9,6) -10.9412 (1,10,5) 16.5937
(1,9,6): (1,8,6) -52.1841 (1,9,5) 10.9412 (1,9,7) 10.9440 (1,10,6) 27.6985
(1,9,7): (1,8,7) -13.5277 (1,9,6) -10.9440 (1,9,8) 5.39862 (1,10,7) 16.5967
(1,9,8): (1,8,8) -3.76050 (1,9,7) -5.39862 (1,9,9) 2.14967 (1,10,8) 5.39939
(1,9,9): (1,8,9) -1.08800 (1,9,8) -2.14967 (1,9,10) 0.658218 (1,10,9) 1.80355
(1,9,10): (1,8,10) -0.386792 (1,9,9) -0.658218 (1,10,10) 0.713656
(1,10,1): (1,9,1) -0.206795 (1,10,2) 0.190623 (1,11,1) 6.590653E-02
(1,10,2): (1,9,2) -0.562497 (1,10,1) -0.190623 (1,10,3) 0.506610 (1,11,2) 0.157532
(1,10,3): (1,9,3) -1.76124 (1,10,2) -0.506610 (1,10,4) 1.38957 (1,11,3) 0.352768
(1,10,4): (1,9,4) -5.38810 (1,10,3) -1.38957 (1,10,5) 5.01098 (1,11,4) 0.318508
(1,10,5): (1,9,5) -16.5937 (1,10,4) -5.01098 (1,10,6) -1.35987 (1,11,5) -2.59308
(1,10,6): (1,9,6) -27.6985 (1,10,5) 1.35987 (1,10,7) 1.36507 (1,11,6) -0.976904
(1,10,7): (1,9,7) -16.5967 (1,10,6) -1.36507 (1,10,8) -4.99814 (1,11,7) -2.59223
(1,10,8): (1,9,8) -5.39939 (1,10,7) 4.99814 (1,10,9) -1.35506 (1,11,8) 0.322285
(1,10,9): (1,9,9) -1.80355 (1,10,8) 1.35506 (1,10,10) -0.421284 (1,11,9) 0.366916
(1,10,10): (1,9,10) -0.713656 (1,10,9) 0.421284 (1,11,10) 0.205606
(1,11,1): (1,10,1) -6.590653E-02 (1,11,2) 0.282362 (1,12,1) -6.079193E-02
(1,11,2): (1,10,2) -0.157532 (1,11,1) -0.282362 (1,11,3) 0.702509 (1,12,2) -0.132794
(1,11,3): (1,10,3) -0.352768 (1,11,2) -0.702509 (1,11,4) 1.35493 (1,12,3) -0.344211
(1,11,4): (1,10,4) -0.318508 (1,11,3) -1.35493 (1,11,5) 2.03852 (1,12,4) -0.879225
(1,11,5): (1,10,5) 2.59308 (1,11,4) -2.03852 (1,11,6) 0.239529 (1,12,5) -1.98011
(1,11,6): (1,10,6) 0.976904 (1,11,5) -0.239529 (1,11,7) -0.233551 (1,12,6) -1.93540
(1,11,7): (1,10,7) 2.59223 (1,11,6) 0.233551 (1,11,8) -2.02302 (1,12,7) -1.98139
(1,11,8): (1,10,8) -0.322285 (1,11,7) 2.02302 (1,11,9) -1.30996 (1,12,8) -0.883652
(1,11,9): (1,10,9) -0.366916 (1,11,8) 1.30996 (1,11,10) -0.582931 (1,12,9) -0.358102
(1,11,10): (1,10,10) -0.205606 (1,11,9) 0.582931 (1,12,10) -0.173601
(1,12,1): (1,11,1) 6.079193E-02 (1,12,2) 0.210253 (1,13,1) -9.038701E-02
(1,12,2): (1,11,2) 0.132794 (1,12,1) -0.210253 (1,12,3) 0.490357 (1,13,2) -0.185409
(1,12,3): (1,11,3) 0.344211 (1,12,2) -0.490357 (1,12,4) 0.817518 (1,13,3) -0.418536
(1,12,4): (1,11,4) 0.879225 (1,12,3) -0.817518 (1,12,5) 0.937059 (1,13,4) -0.838837
(1,12,5): (1,11,5) 1.98011 (1,12,4) -0.937059 (1,12,6) 0.283476 (1,13,5) -1.36724
(1,12,6): (1,11,6) 1.93540 (1,12,5) -0.283476 (1,12,7) -0.278759 (1,13,6) -1.49933
(1,12,7): (1,11,7) 1.98139 (1,12,6) 0.278759 (1,12,8) -0.924868 (1,13,7) -1.36911
(1,12,8): (1,11,8) 0.883652 (1,12,7) 0.924868 (1,12,9) -0.782301 (1,13,8) -0.845566
(1,12,9): (1,11,9) 0.358102 (1,12,8) 0.782301 (1,12,10) -0.398028 (1,13,9) -0.439687
(1,12,10): (1,11,10) 0.173601 (1,12,9) 0.398028 (1,13,10) -0.245983
(1,13,1): (1,12,1) 9.038701E-02 (1,13,2) 0.115208 (1,14,1) -6.485275E-02
(1,13,2): (1,12,2) 0.185409 (1,13,1) -0.115208 (1,13,3) 0.257065 (1,14,2) -0.127170
(1,13,3): (1,12,3) 0.418536 (1,13,2) -0.257065 (1,13,4) 0.397303 (1,14,3) -0.270036
(1,13,4): (1,12,4) 0.838837 (1,13,3) -0.397303 (1,13,5) 0.410784 (1,14,4) -0.499220
(1,13,5): (1,12,5) 1.36724 (1,13,4) -0.410784 (1,13,6) 0.152863 (1,14,5) -0.745169
(1,13,6): (1,12,6) 1.49933 (1,13,5) -0.152863 (1,13,7) -0.150004 (1,14,6) -0.832715
(1,13,7): (1,12,7) 1.36911 (1,13,6) 0.150004 (1,13,8) -0.403499 (1,14,7) -0.746565
(1,13,8): (1,12,8) 0.845566 (1,13,7) 0.403499 (1,13,9) -0.376669 (1,14,8) -0.504222
(1,13,9): (1,12,9) 0.439687 (1,13,8) 0.376669 (1,13,10) -0.204403 (1,14,9) -0.285482
(1,13,10): (1,12,10) 0.245983 (1,13,9) 0.204403 (1,14,10) -0.170077
(1,14,1): (1,13,1) 6.485275E-02 (1,14,2) 5.289810E-02 (1,15,1) -2.996915E-02
(1,14,2): (1,13,2) 0.127170 (1,14,1) -5.289810E-02 (1,14,3) 0.114218 (1,15,2) -5.702913E-02
(1,14,3): (1,13,3) 0.270036 (1,14,2) -0.114218 (1,14,4) 0.168347 (1,15,3) -0.116906
(1,14,4): (1,13,4) 0.499220 (1,14,3) -0.168347 (1,14,5) 0.165630 (1,15,4) -0.207917
(1,14,5): (1,13,5) 0.745169 (1,14,4) -0.165630 (1,14,6) 6.588791E-02 (1,15,5) -0.299861
(1,14,6): (1,13,6) 0.832715 (1,14,5) -6.588791E-02 (1,14,7) -6.441795E-02 (1,15,6) -0.335764
(1,14,7): (1,13,7) 0.746565 (1,14,6) 6.441795E-02 (1,14,8) -0.161960 (1,15,7) -0.300527
(1,14,8): (1,13,8) 0.504222 (1,14,7) 0.161960 (1,14,9) -0.158202 (1,15,8) -0.210288
(1,14,9): (1,13,9) 0.285482 (1,14,8) 0.158202 (1,14,10) -8.909005E-02 (1,15,9) -0.124121
(1,14,10): (1,13,10) 0.170077 (1,14,9) 8.909005E-02 (1,15,10) -7.663451E-02
(1,15,1): (1,14,1) 2.996915E-02 (1,15,2) 2.583923E-02
(1,15,2): (1,14,2) 5.702913E-02 (1,15,1) -2.583923E-02 (1,15,3) 5.434303E-02
(1,15,3): (1,14,3) 0.116906 (1,15,2) -5.434303E-02 (1,15,4) 7.737209E-02
(1,15,4): (1,14,4) 0.207917 (1,15,3) -7.737209E-02 (1,15,5) 7.380819E-02
(1,15,5): (1,14,5) 0.299861 (1,15,4) -7.380819E-02 (1,15,6) 3.007924E-02
(1,15,6): (1,14,6) 0.335764 (1,15,5) -3.007924E-02 (1,15,7) -2.927473E-02
(1,15,7): (1,14,7) 0.300527 (1,15,6) 2.927473E-02 (1,15,8) -7.184351E-02
(1,15,8): (1,14,8) 0.210288 (1,15,7) 7.184351E-02 (1,15,9) -7.207947E-02
(1,15,9): (1,14,9) 0.124121 (1,15,8) 7.207947E-02 (1,15,10) -4.161986E-02
(1,15,10): (1,14,10) 7.663451E-02 (1,15,9) 4.161986E-02

 WEL PACKAGE (WEL-1) FLOW RATES   PERIOD      2   STEP       50
 ----------------------------------------------------------------------------------------
   NUMBER   CELLID                    RATE       NAME                                    
 ----------------------------------------------------------------------------------------
     1      (1,8,6)              -208.22490      WEL                                     
 ----------------------------------------------------------------------------------------




 API PACKAGE (MAR) FLOW RATES   PERIOD      2   STEP       50
 -----------------------------------------------
   NUMBER   CELLID                    RATE      
 -----------------------------------------------
     1      (1,6,5)               46.666667     
     2      (1,6,6)               46.666667     
     3      (1,6,7)               46.666667     
     4      (1,10,5)              22.741635     
     5      (1,10,6)              22.741635     
     6      (1,10,7)              22.741635     
 -----------------------------------------------



1
  HEAD IN LAYER   1 AT END OF TIME STEP  50 IN STRESS PERIOD    2
  ---------------------------------------------------------------------------

            1           2           3           4           5           6           7           8           9          10
 ........................................................................................................................
   1   3.7215E-03  6.7623E-03  1.3267E-02  2.2754E-02  3.2035E-02  3.5856E-02  3.2125E-02  2.3065E-02  1.4178E-02  9.1396E-03
   2   7.2827E-03  1.3741E-02  2.8063E-02  4.9989E-02  7.2474E-02  8.1577E-02  7.2640E-02  5.0572E-02  2.9819E-02  1.8469E-02
   3   1.5249E-02  3.0033E-02  6.4345E-02  0.1204      0.1821      0.2059      0.1824      0.1216      6.7948E-02  4.0086E-02
   4   2.7138E-02  5.6112E-02  0.1277      0.2564      0.4170      0.4711      0.4176      0.2584      0.1339      7.4239E-02
   5   3.7036E-02  8.0844E-02  0.1995      0.4513      0.8567      0.9474      0.8574      0.4538      0.2078      0.1058    
   6   3.2364E-02  7.2695E-02  0.1981      0.5619       1.648       1.659       1.648      0.5641      0.2053      9.4443E-02
   7   7.5459E-03  3.7670E-03 -2.2917E-02 -0.1292     -0.4651      -1.579     -0.4648     -0.1282     -2.0543E-02  7.5070E-03
   8  -1.0034E-02 -4.6690E-02 -0.1917     -0.6877      -2.336      -8.620      -2.336     -0.6875     -0.1928     -5.5916E-02
   9   6.1498E-04 -1.5788E-02 -8.4102E-02 -0.3006     -0.8567      -2.053     -0.8564     -0.2999     -8.3105E-02 -1.7170E-02
  10   2.1251E-02  4.0237E-02  9.0443E-02  0.2263      0.6949      0.5677      0.6953      0.2280      9.5544E-02  5.3814E-02
  11   2.7823E-02  5.5902E-02  0.1253      0.2574      0.4524      0.4753      0.4530      0.2594      0.1318      7.4223E-02
  12   2.1761E-02  4.2697E-02  9.1289E-02  0.1717      0.2630      0.2905      0.2634      0.1733      9.6414E-02  5.6991E-02
  13   1.2742E-02  2.4235E-02  4.9814E-02  8.9193E-02  0.1297      0.1448      0.1300      9.0195E-02  5.2865E-02  3.2532E-02
  14   6.2645E-03  1.1548E-02  2.2944E-02  3.9712E-02  5.6183E-02  6.2730E-02  5.6329E-02  4.0223E-02  2.4467E-02  1.5579E-02
  15   3.2695E-03  5.8519E-03  1.1280E-02  1.9003E-02  2.6364E-02  2.9363E-02  2.6444E-02  1.9279E-02  1.2085E-02  7.9278E-03

 HEAD WILL BE SAVED ON UNIT 1043 AT END OF TIME STEP   50, STRESS PERIOD    2


  VOLUME BUDGET FOR ENTIRE MODEL AT END OF TIME STEP   50, STRESS PERIOD   2
  ---------------------------------------------------------------------------------------------------

     CUMULATIVE VOLUME      L**3       RATES FOR THIS TIME STEP      L**3/T          PACKAGE NAME    
     ------------------                 ------------------------                     ----------------

           IN:                                      IN:
           ---                                      ---
              STO-SS =          20.9912                STO-SS =       1.9989E-02     STORAGE                          
              STO-SY =       51017.9367                STO-SY =          41.5176     STORAGE                          
                 WEL =           0.0000                   WEL =           0.0000     WEL-1                            
                 API =      118663.2607                   API =         208.2249     MAR                              
                 CHD =       2.8247E-08                   CHD =           0.0000     CHD_0                            

            TOTAL IN =      169702.1886              TOTAL IN =         249.7625

          OUT:                                     OUT:
          ----                                     ----
              STO-SS =          26.5099                STO-SS =       2.1276E-02     STORAGE                          
              STO-SY =       51012.4180                STO-SY =          41.5164     STORAGE                          
                 WEL =      118663.2606                   WEL =         208.2249     WEL-1                            
                 API =           0.0000                   API =           0.0000     MAR                              
                 CHD =       3.0388E-08                   CHD =           0.0000     CHD_0                            

           TOTAL OUT =      169702.1886             TOTAL OUT =         249.7625

            IN - OUT =       5.7291E-07              IN - OUT =       4.9344E-09

 PERCENT DISCREPANCY =           0.00     PERCENT DISCREPANCY =           0.00




         TIME SUMMARY AT END OF TIME STEP   50 IN STRESS PERIOD    2
                    SECONDS     MINUTES      HOURS       DAYS        YEARS
                    -----------------------------------------------------------
   TIME STEP LENGTH 8.64000E+05  14400.      240.00      10.000     2.73785E-02
 STRESS PERIOD TIME 4.32000E+07 7.20000E+05  12000.      500.00      1.3689    
         TOTAL TIME 4.32864E+07 7.21440E+05  12024.      501.00      1.3717    


end timestep


start timestep kper="2" kstp="51" mode="normal"

 UBDSV1 SAVING           STO-SS ON UNIT   1042 AT TIME STEP     51, STRESS PERIOD      2
 UBDSV1 SAVING           STO-SY ON UNIT   1042 AT TIME STEP     51, STRESS PERIOD      2
 UBDSV1 SAVING     FLOW-JA-FACE ON UNIT   1042 AT TIME STEP     51, STRESS PERIOD      2
 UBDSV06 SAVING       DATA-SPDIS IN MODEL GWF              PACKAGE NPF             CONNECTED TO MODEL GWF              PACKAGE NPF              ON UNIT   1042 AT TIME STEP     51, STRESS PERIOD      2
 UBDSV06 SAVING              WEL IN MODEL GWF              PACKAGE GWF             CONNECTED TO MODEL GWF              PACKAGE WEL-1            ON UNIT   1042 AT TIME STEP     51, STRESS PERIOD      2
 UBDSV06 SAVING              API IN MODEL GWF              PACKAGE GWF             CONNECTED TO MODEL GWF              PACKAGE MAR              ON UNIT   1042 AT TIME STEP     51, STRESS PERIOD      2
 UBDSV06 SAVING              CHD IN MODEL GWF              PACKAGE GWF             CONNECTED TO MODEL GWF              PACKAGE CHD_0            ON UNIT   1042 AT TIME STEP     51, STRESS PERIOD      2

    CALCULATED INTERCELL FLOW FOR PERIOD 2 STEP 51
(1,1,1): (1,1,2) 3.240978E-02 (1,2,1) 3.782134E-02
(1,1,2): (1,1,1) -3.240978E-02 (1,1,3) 6.890944E-02 (1,2,2) 7.330973E-02
(1,1,3): (1,1,2) -6.890944E-02 (1,1,4) 9.983849E-02 (1,2,3) 0.154130
(1,1,4): (1,1,3) -9.983849E-02 (1,1,5) 9.721023E-02 (1,2,4) 0.282333
(1,1,5): (1,1,4) -9.721023E-02 (1,1,6) 3.999610E-02 (1,2,5) 0.418356
(1,1,6): (1,1,5) -3.999610E-02 (1,1,7) -3.898093E-02 (1,2,6) 0.472947
(1,1,7): (1,1,6) 3.898093E-02 (1,1,8) -9.475618E-02 (1,2,7) 0.419200
(1,1,8): (1,1,7) 9.475618E-02 (1,1,9) -9.325820E-02 (1,2,8) 0.285313
(1,1,9): (1,1,8) 9.325820E-02 (1,1,10) -5.307308E-02 (1,2,9) 0.163200
(1,1,10): (1,1,9) 5.307308E-02 (1,2,10) 9.819188E-02
(1,2,1): (1,1,1) -3.782134E-02 (1,2,2) 6.789625E-02 (1,3,1) 8.377012E-02
(1,2,2): (1,1,2) -7.330973E-02 (1,2,1) -6.789625E-02 (1,2,3) 0.149726 (1,3,2) 0.169572
(1,2,3): (1,1,3) -0.154130 (1,2,2) -0.149726 (1,2,4) 0.227973 (1,3,3) 0.375303
(1,2,4): (1,1,4) -0.282333 (1,2,3) -0.227973 (1,2,5) 0.232986 (1,3,4) 0.727526
(1,2,5): (1,1,5) -0.418356 (1,2,4) -0.232986 (1,2,6) 9.438555E-02 (1,3,5) 1.13505
(1,2,6): (1,1,6) -0.472947 (1,2,5) -9.438555E-02 (1,2,7) -9.252876E-02 (1,3,6) 1.28918
(1,2,7): (1,1,7) -0.419200 (1,2,6) 9.252876E-02 (1,2,8) -0.228393 (1,3,7) 1.13685
(1,2,8): (1,1,8) -0.285313 (1,2,7) 0.228393 (1,2,9) -0.215287 (1,3,8) 0.733915
(1,2,9): (1,1,9) -0.163200 (1,2,8) 0.215287 (1,2,10) -0.118052 (1,3,9) 0.395102
(1,2,10): (1,1,10) -9.819188E-02 (1,2,9) 0.118052 (1,3,10) 0.225559
(1,3,1): (1,2,1) -8.377012E-02 (1,3,2) 0.153685 (1,4,1) 0.123366
(1,3,2): (1,2,2) -0.169572 (1,3,1) -0.153685 (1,3,3) 0.355417 (1,4,2) 0.268350
(1,3,3): (1,2,3) -0.375303 (1,3,2) -0.355417 (1,3,4) 0.579691 (1,4,3) 0.650517
(1,3,4): (1,2,4) -0.727526 (1,3,3) -0.579691 (1,3,5) 0.638579 (1,4,4) 1.40794
(1,3,5): (1,2,5) -1.13505 (1,3,4) -0.638579 (1,3,6) 0.247004 (1,4,5) 2.46177
(1,3,6): (1,2,6) -1.28918 (1,3,5) -0.247004 (1,3,7) -0.243360 (1,4,6) 2.79238
(1,3,7): (1,2,7) -1.13685 (1,3,6) 0.243360 (1,3,8) -0.629376 (1,4,7) 2.46430
(1,3,8): (1,2,8) -0.733915 (1,3,7) 0.629376 (1,3,9) -0.553507 (1,4,8) 1.41688
(1,3,9): (1,2,9) -0.395102 (1,3,8) 0.553507 (1,3,10) -0.287416 (1,4,9) 0.678909
(1,3,10): (1,2,10) -0.225559 (1,3,9) 0.287416 (1,4,10) 0.352579
(1,4,1): (1,3,1) -0.123366 (1,4,2) 0.298713 (1,5,1) 0.100404
(1,4,2): (1,3,2) -0.268350 (1,4,1) -0.298713 (1,4,3) 0.737907 (1,5,2) 0.249968
(1,4,3): (1,3,3) -0.650517 (1,4,2) -0.737907 (1,4,4) 1.33660 (1,5,3) 0.732012
(1,4,4): (1,3,4) -1.40794 (1,4,3) -1.33660 (1,4,5) 1.68504 (1,5,4) 2.03179
(1,4,5): (1,3,5) -2.46177 (1,4,4) -1.68504 (1,4,6) 0.571180 (1,5,5) 4.76509
(1,4,6): (1,3,6) -2.79238 (1,4,5) -0.571180 (1,4,7) -0.565041 (1,5,6) 5.20518
(1,4,7): (1,3,7) -2.46430 (1,4,6) 0.565041 (1,4,8) -1.66930 (1,5,7) 4.76709
(1,4,8): (1,3,8) -1.41688 (1,4,7) 1.66930 (1,4,9) -1.29060 (1,5,8) 2.03846
(1,4,9): (1,3,9) -0.678909 (1,4,8) 1.29060 (1,4,10) -0.613540 (1,5,9) 0.753872
(1,4,10): (1,3,10) -0.352579 (1,4,9) 0.613540 (1,5,10) 0.320389
(1,5,1): (1,4,1) -0.100404 (1,5,2) 0.448568 (1,6,1) -5.159250E-02
(1,5,2): (1,4,2) -0.249968 (1,5,1) -0.448568 (1,5,3) 1.22221 (1,6,2) -9.110753E-02
(1,5,3): (1,4,3) -0.732012 (1,5,2) -1.22221 (1,5,4) 2.64355 (1,6,3) -3.181017E-02
(1,5,4): (1,4,4) -2.03179 (1,5,3) -2.64355 (1,5,5) 4.41036 (1,6,4) 1.13996
(1,5,5): (1,4,5) -4.76509 (1,5,4) -4.41036 (1,5,6) 0.997234 (1,6,5) 9.17609
(1,5,6): (1,4,6) -5.20518 (1,5,5) -0.997234 (1,5,7) -0.989131 (1,6,6) 8.25488
(1,5,7): (1,4,7) -4.76709 (1,5,6) 0.989131 (1,5,8) -4.38944 (1,6,7) 9.17539
(1,5,8): (1,4,8) -2.03846 (1,5,7) 4.38944 (1,5,9) -2.58148 (1,6,8) 1.13636
(1,5,9): (1,4,9) -0.753872 (1,5,8) 2.58148 (1,5,10) -1.04824 (1,6,9) -4.412734E-02
(1,5,10): (1,4,10) -0.320389 (1,5,9) 1.04824 (1,6,10) -0.127265
(1,6,1): (1,5,1) 5.159250E-02 (1,6,2) 0.408915 (1,7,1) -0.257489
(1,6,2): (1,5,2) 9.110753E-02 (1,6,1) -0.408915 (1,6,3) 1.28219 (1,7,2) -0.709287
(1,6,3): (1,5,3) 3.181017E-02 (1,6,2) -1.28219 (1,6,4) 3.84373 (1,7,3) -2.28164
(1,6,4): (1,5,4) -1.13996 (1,6,3) -3.84373 (1,6,5) 12.6491 (1,7,4) -7.34202
(1,6,5): (1,5,5) -9.17609 (1,6,4) -12.6491 (1,6,6) 0.131591 (1,7,5) -24.6620
(1,6,6): (1,5,6) -8.25488 (1,6,5) -0.131591 (1,6,7) -0.124166 (1,7,6) -37.7913
(1,6,7): (1,5,7) -9.17539 (1,6,6) 0.124166 (1,6,8) -12.6301 (1,7,7) -24.6663
(1,6,8): (1,5,8) -1.13636 (1,6,7) 12.6301 (1,6,9) -3.79004 (1,7,8) -7.35668
(1,6,9): (1,5,9) 4.412734E-02 (1,6,8) 3.79004 (1,6,10) -1.13219 (1,7,9) -2.33475
(1,6,10): (1,5,10) 0.127265 (1,6,9) 1.13219 (1,7,10) -0.898012
(1,7,1): (1,6,1) 0.257489 (1,7,2) -4.156603E-02 (1,8,1) -0.181926
(1,7,2): (1,6,2) 0.709287 (1,7,1) 4.156603E-02 (1,7,3) -0.275902 (1,8,2) -0.515888
(1,7,3): (1,6,3) 2.28164 (1,7,2) 0.275902 (1,7,4) -1.07210 (1,8,3) -1.70567
(1,7,4): (1,6,4) 7.34202 (1,7,3) 1.07210 (1,7,5) -3.31748 (1,8,4) -5.54725
(1,7,5): (1,6,5) 24.6620 (1,7,4) 3.31748 (1,7,6) -10.6058 (1,8,5) -17.8765
(1,7,6): (1,6,6) 37.7913 (1,7,5) 10.6058 (1,7,7) 10.6099 (1,8,6) -59.2907
(1,7,7): (1,6,7) 24.6663 (1,7,6) -10.6099 (1,7,8) 3.32490 (1,8,7) -17.8793
(1,7,8): (1,6,8) 7.35668 (1,7,7) -3.32490 (1,7,9) 1.08591 (1,8,8) -5.55712
(1,7,9): (1,6,9) 2.33475 (1,7,8) -1.08591 (1,7,10) 0.288909 (1,8,9) -1.74236
(1,7,10): (1,6,10) 0.898012 (1,7,9) -0.288909 (1,8,10) -0.649718
(1,8,1): (1,7,1) 0.181926 (1,8,2) -0.375060 (1,9,1) 0.107331
(1,8,2): (1,7,2) 0.515888 (1,8,1) 0.375060 (1,8,3) -1.46282 (1,9,2) 0.308181
(1,8,3): (1,7,3) 1.70567 (1,8,2) 1.46282 (1,8,4) -4.88884 (1,9,3) 1.06114
(1,8,4): (1,7,4) 5.54725 (1,8,3) 4.88884 (1,8,5) -15.3500 (1,9,4) 3.73245
(1,8,5): (1,7,5) 17.8765 (1,8,4) 15.3500 (1,8,6) -48.0793 (1,9,5) 13.4619
(1,8,6): (1,7,6) 59.2907 (1,8,5) 48.0793 (1,8,7) 48.0816 (1,9,6) 52.0172
(1,8,7): (1,7,7) 17.8793 (1,8,6) -48.0816 (1,8,8) 15.3502 (1,9,7) 13.4635
(1,8,8): (1,7,8) 5.55712 (1,8,7) -15.3502 (1,8,9) 4.87512 (1,9,8) 3.73807
(1,8,9): (1,7,9) 1.74236 (1,8,8) -4.87512 (1,8,10) 1.37759 (1,9,9) 1.08249
(1,8,10): (1,7,10) 0.649718 (1,8,9) -1.37759 (1,9,10) 0.386732
(1,9,1): (1,8,1) -0.107331 (1,9,2) -0.174075 (1,10,1) 0.212376
(1,9,2): (1,8,2) -0.308181 (1,9,1) 0.174075 (1,9,3) -0.706816 (1,10,2) 0.570929
(1,9,3): (1,8,3) -1.06114 (1,9,2) 0.706816 (1,9,4) -2.18598 (1,10,3) 1.77239
(1,9,4): (1,8,4) -3.73245 (1,9,3) 2.18598 (1,9,5) -5.42979 (1,10,4) 5.39191
(1,9,5): (1,8,5) -13.4619 (1,9,4) 5.42979 (1,9,6) -10.9320 (1,10,5) 16.5543
(1,9,6): (1,8,6) -52.0172 (1,9,5) 10.9320 (1,9,7) 10.9350 (1,10,6) 27.6259
(1,9,7): (1,8,7) -13.4635 (1,9,6) -10.9350 (1,9,8) 5.43428 (1,10,7) 16.5575
(1,9,8): (1,8,8) -3.73807 (1,9,7) -5.43428 (1,9,9) 2.18869 (1,10,8) 5.40372
(1,9,9): (1,8,9) -1.08249 (1,9,8) -2.18869 (1,9,10) 0.679767 (1,10,9) 1.81613
(1,9,10): (1,8,10) -0.386732 (1,9,9) -0.679767 (1,10,10) 0.725484
(1,10,1): (1,9,1) -0.212376 (1,10,2) 0.183404 (1,11,1) 7.130985E-02
(1,10,2): (1,9,2) -0.570929 (1,10,1) -0.183404 (1,10,3) 0.484483 (1,11,2) 0.168485
(1,10,3): (1,9,3) -1.77239 (1,10,2) -0.484483 (1,10,4) 1.34273 (1,11,3) 0.376517
(1,10,4): (1,9,4) -5.39191 (1,10,3) -1.34273 (1,10,5) 4.93444 (1,11,4) 0.364500
(1,10,5): (1,9,5) -16.5543 (1,10,4) -4.93444 (1,10,6) -1.37821 (1,11,5) -2.50656
(1,10,6): (1,9,6) -27.6259 (1,10,5) 1.37821 (1,10,7) 1.38371 (1,11,6) -0.886009
(1,10,7): (1,9,7) -16.5575 (1,10,6) -1.38371 (1,10,8) -4.92118 (1,11,7) -2.50561
(1,10,8): (1,9,8) -5.40372 (1,10,7) 4.92118 (1,10,9) -1.30789 (1,11,8) 0.368669
(1,10,9): (1,9,9) -1.81613 (1,10,8) 1.30789 (1,10,10) -0.400402 (1,11,9) 0.391933
(1,10,10): (1,9,10) -0.725484 (1,10,9) 0.400402 (1,11,10) 0.220226
(1,11,1): (1,10,1) -7.130985E-02 (1,11,2) 0.280686 (1,12,1) -5.932517E-02
(1,11,2): (1,10,2) -0.168485 (1,11,1) -0.280686 (1,11,3) 0.693154 (1,12,2) -0.127598
(1,11,3): (1,10,3) -0.376517 (1,11,2) -0.693154 (1,11,4) 1.33056 (1,12,3) -0.328920
(1,11,4): (1,10,4) -0.364500 (1,11,3) -1.33056 (1,11,5) 2.00323 (1,12,4) -0.844797
(1,11,5): (1,10,5) 2.50656 (1,11,4) -2.00323 (1,11,6) 0.226884 (1,12,5) -1.92064
(1,11,6): (1,10,6) 0.886009 (1,11,5) -0.226884 (1,11,7) -0.220513 (1,12,6) -1.86764
(1,11,7): (1,10,7) 2.50561 (1,11,6) 0.220513 (1,11,8) -1.98702 (1,12,7) -1.92195
(1,11,8): (1,10,8) -0.368669 (1,11,7) 1.98702 (1,11,9) -1.28438 (1,12,8) -0.849234
(1,11,9): (1,10,9) -0.391933 (1,11,8) 1.28438 (1,11,10) -0.572409 (1,12,9) -0.342585
(1,11,10): (1,10,10) -0.220226 (1,11,9) 0.572409 (1,12,10) -0.167044
(1,12,1): (1,11,1) 5.932517E-02 (1,12,2) 0.212311 (1,13,1) -9.222777E-02
(1,12,2): (1,11,2) 0.127598 (1,12,1) -0.212311 (1,12,3) 0.491119 (1,13,2) -0.186470
(1,12,3): (1,11,3) 0.328920 (1,12,2) -0.491119 (1,12,4) 0.812322 (1,13,3) -0.416191
(1,12,4): (1,11,4) 0.844797 (1,12,3) -0.812322 (1,12,5) 0.926588 (1,13,4) -0.828382
(1,12,5): (1,11,5) 1.92064 (1,12,4) -0.926588 (1,12,6) 0.279027 (1,13,5) -1.34591
(1,12,6): (1,11,6) 1.86764 (1,12,5) -0.279027 (1,12,7) -0.273943 (1,13,6) -1.47359
(1,12,7): (1,11,7) 1.92195 (1,12,6) 0.273943 (1,12,8) -0.913681 (1,13,7) -1.34789
(1,12,8): (1,11,8) 0.849234 (1,12,7) 0.913681 (1,12,9) -0.775650 (1,13,8) -0.835399
(1,12,9): (1,11,9) 0.342585 (1,12,8) 0.775650 (1,12,10) -0.396477 (1,13,9) -0.437927
(1,12,10): (1,11,10) 0.167044 (1,12,9) 0.396477 (1,13,10) -0.247839
(1,13,1): (1,12,1) 9.222777E-02 (1,13,2) 0.118045 (1,14,1) -6.745353E-02
(1,13,2): (1,12,2) 0.186470 (1,13,1) -0.118045 (1,13,3) 0.261230 (1,14,2) -0.130448
(1,13,3): (1,12,3) 0.416191 (1,13,2) -0.261230 (1,13,4) 0.400194 (1,14,3) -0.273761
(1,13,4): (1,12,4) 0.828382 (1,13,3) -0.400194 (1,13,5) 0.411094 (1,14,4) -0.501891
(1,13,5): (1,12,5) 1.34591 (1,13,4) -0.411094 (1,13,6) 0.152749 (1,14,5) -0.745406
(1,13,6): (1,12,6) 1.47359 (1,13,5) -0.152749 (1,13,7) -0.149627 (1,14,6) -0.831822
(1,13,7): (1,12,7) 1.34789 (1,13,6) 0.149627 (1,13,8) -0.403277 (1,14,7) -0.746907
(1,13,8): (1,12,8) 0.835399 (1,13,7) 0.403277 (1,13,9) -0.378406 (1,14,8) -0.507202
(1,13,9): (1,12,9) 0.437927 (1,13,8) 0.378406 (1,13,10) -0.206465 (1,14,9) -0.289937
(1,13,10): (1,12,10) 0.247839 (1,13,9) 0.206465 (1,14,10) -0.174773
(1,14,1): (1,13,1) 6.745353E-02 (1,14,2) 5.505812E-02 (1,15,1) -3.157189E-02
(1,14,2): (1,13,2) 0.130448 (1,14,1) -5.505812E-02 (1,14,3) 0.117934 (1,15,2) -5.928549E-02
(1,14,3): (1,13,3) 0.273761 (1,14,2) -0.117934 (1,14,4) 0.172291 (1,15,3) -0.120141
(1,14,4): (1,13,4) 0.501891 (1,14,3) -0.172291 (1,14,5) 0.168366 (1,15,4) -0.211881
(1,14,5): (1,13,5) 0.745406 (1,14,4) -0.168366 (1,14,6) 6.689613E-02 (1,15,5) -0.303995
(1,14,6): (1,13,6) 0.831822 (1,14,5) -6.689613E-02 (1,14,7) -6.526773E-02 (1,15,6) -0.339904
(1,14,7): (1,13,7) 0.746907 (1,14,6) 6.526773E-02 (1,14,8) -0.164368 (1,15,7) -0.304720
(1,14,8): (1,13,8) 0.507202 (1,14,7) 0.164368 (1,14,9) -0.161415 (1,15,8) -0.214430
(1,14,9): (1,13,9) 0.289937 (1,14,8) 0.161415 (1,14,10) -9.139507E-02 (1,15,9) -0.127792
(1,14,10): (1,13,10) 0.174773 (1,14,9) 9.139507E-02 (1,15,10) -7.980228E-02
(1,15,1): (1,14,1) 3.157189E-02 (1,15,2) 2.734569E-02
(1,15,2): (1,14,2) 5.928549E-02 (1,15,1) -2.734569E-02 (1,15,3) 5.708017E-02
(1,15,3): (1,14,3) 0.120141 (1,15,2) -5.708017E-02 (1,15,4) 8.058609E-02
(1,15,4): (1,14,4) 0.211881 (1,15,3) -8.058609E-02 (1,15,5) 7.637509E-02
(1,15,5): (1,14,5) 0.303995 (1,15,4) -7.637509E-02 (1,15,6) 3.108298E-02
(1,15,6): (1,14,6) 0.339904 (1,15,5) -3.108298E-02 (1,15,7) -3.017844E-02
(1,15,7): (1,14,7) 0.304720 (1,15,6) 3.017844E-02 (1,15,8) -7.420246E-02
(1,15,8): (1,14,8) 0.214430 (1,15,7) 7.420246E-02 (1,15,9) -7.482227E-02
(1,15,9): (1,14,9) 0.127792 (1,15,8) 7.482227E-02 (1,15,10) -4.342288E-02
(1,15,10): (1,14,10) 7.980228E-02 (1,15,9) 4.342288E-02

 WEL PACKAGE (WEL-1) FLOW RATES   PERIOD      2   STEP       51
 ----------------------------------------------------------------------------------------
   NUMBER   CELLID                    RATE       NAME                                    
 ----------------------------------------------------------------------------------------
     1      (1,8,6)              -207.87380      WEL                                     
 ----------------------------------------------------------------------------------------




 API PACKAGE (MAR) FLOW RATES   PERIOD      2   STEP       51
 -----------------------------------------------
   NUMBER   CELLID                    RATE      
 -----------------------------------------------
     1      (1,6,5)               46.666667     
     2      (1,6,6)               46.666667     
     3      (1,6,7)               46.666667     
     4      (1,10,5)              22.624599     
     5      (1,10,6)              22.624599     
     6      (1,10,7)              22.624599     
 -----------------------------------------------



1
  HEAD IN LAYER   1 AT END OF TIME STEP  51 IN STRESS PERIOD    2
  ---------------------------------------------------------------------------

            1           2           3           4           5           6           7           8           9          10
 ........................................................................................................................
   1   4.0725E-03  7.3111E-03  1.4192E-02  2.4152E-02  3.3840E-02  3.7825E-02  3.3941E-02  2.4498E-02  1.5195E-02  9.8956E-03
   2   7.8516E-03  1.4631E-02  2.9560E-02  5.2239E-02  7.5363E-02  8.4722E-02  7.5547E-02  5.2879E-02  3.1464E-02  1.9695E-02
   3   1.6215E-02  3.1535E-02  6.6841E-02  0.1241      0.1868      0.2110      0.1871      0.1254      7.0697E-02  4.2157E-02
   4   2.8517E-02  5.8215E-02  0.1311      0.2613      0.4230      0.4775      0.4236      0.2634      0.1377      7.7145E-02
   5   3.8518E-02  8.3006E-02  0.2028      0.4556      0.8617      0.9527      0.8624      0.4583      0.2115      0.1088    
   6   3.3379E-02  7.3970E-02  0.1997      0.5635       1.649       1.661       1.650      0.5659      0.2072      9.6249E-02
   7   7.7158E-03  3.5624E-03 -2.4018E-02 -0.1315     -0.4677      -1.580     -0.4673     -0.1304     -2.1566E-02  7.3040E-03
   8  -1.0463E-02 -4.8008E-02 -0.1950     -0.6936      -2.343      -8.622      -2.343     -0.6934     -0.1962     -5.7620E-02
   9   2.7000E-04 -1.7137E-02 -8.7940E-02 -0.3085     -0.8687      -2.066     -0.8685     -0.3078     -8.6979E-02 -1.8874E-02
  10   2.1462E-02  3.9730E-02  8.7757E-02  0.2192      0.6811      0.5521      0.6816      0.2209      9.2961E-02  5.3290E-02
  11   2.8573E-02  5.6484E-02  0.1249      0.2547      0.4465      0.4681      0.4471      0.2569      0.1316      7.5148E-02
  12   2.2657E-02  4.3796E-02  9.2458E-02  0.1723      0.2626      0.2897      0.2631      0.1741      9.7832E-02  5.8568E-02
  13   1.3455E-02  2.5230E-02  5.1220E-02  9.0879E-02  0.1315      0.1465      0.1318      9.1959E-02  5.4464E-02  3.3929E-02
  14   6.7190E-03  1.2218E-02  2.3983E-02  4.1142E-02  5.7881E-02  6.4528E-02  5.8043E-02  4.1701E-02  2.5627E-02  1.6511E-02
  15   3.5639E-03  6.2968E-03  1.1998E-02  2.0040E-02  2.7657E-02  3.0756E-02  2.7747E-02  2.0347E-02  1.2880E-02  8.5436E-03

 HEAD WILL BE SAVED ON UNIT 1043 AT END OF TIME STEP   51, STRESS PERIOD    2


  VOLUME BUDGET FOR ENTIRE MODEL AT END OF TIME STEP   51, STRESS PERIOD   2
  ---------------------------------------------------------------------------------------------------

     CUMULATIVE VOLUME      L**3       RATES FOR THIS TIME STEP      L**3/T          PACKAGE NAME    
     ------------------                 ------------------------                     ----------------

           IN:                                      IN:
           ---                                      ---
              STO-SS =          21.1884                STO-SS =       1.9716E-02     STORAGE                          
              STO-SY =       51427.2951                STO-SY =          40.9358     STORAGE                          
                 WEL =           0.0000                   WEL =           0.0000     WEL-1                            
                 API =      120741.9986                   API =         207.8738     MAR                              
                 CHD =       2.8247E-08                   CHD =           0.0000     CHD_0                            

            TOTAL IN =      172190.4821              TOTAL IN =         248.8293

          OUT:                                     OUT:
          ----                                     ----
              STO-SS =          26.7197                STO-SS =       2.0977E-02     STORAGE                          
              STO-SY =       51421.7638                STO-SY =          40.9346     STORAGE                          
                 WEL =      120741.9986                   WEL =         207.8738     WEL-1                            
                 API =           0.0000                   API =           0.0000     MAR                              
                 CHD =       3.0388E-08                   CHD =           0.0000     CHD_0                            

           TOTAL OUT =      172190.4821             TOTAL OUT =         248.8293

            IN - OUT =       6.2474E-07              IN - OUT =       5.1855E-09

 PERCENT DISCREPANCY =           0.00     PERCENT DISCREPANCY =           0.00




         TIME SUMMARY AT END OF TIME STEP   51 IN STRESS PERIOD    2
                    SECONDS     MINUTES      HOURS       DAYS        YEARS
                    -----------------------------------------------------------
   TIME STEP LENGTH 8.64000E+05  14400.      240.00      10.000     2.73785E-02
 STRESS PERIOD TIME 4.40640E+07 7.34400E+05  12240.      510.00      1.3963    
         TOTAL TIME 4.41504E+07 7.35840E+05  12264.      511.00      1.3990    


end timestep


start timestep kper="2" kstp="52" mode="normal"

 UBDSV1 SAVING           STO-SS ON UNIT   1042 AT TIME STEP     52, STRESS PERIOD      2
 UBDSV1 SAVING           STO-SY ON UNIT   1042 AT TIME STEP     52, STRESS PERIOD      2
 UBDSV1 SAVING     FLOW-JA-FACE ON UNIT   1042 AT TIME STEP     52, STRESS PERIOD      2
 UBDSV06 SAVING       DATA-SPDIS IN MODEL GWF              PACKAGE NPF             CONNECTED TO MODEL GWF              PACKAGE NPF              ON UNIT   1042 AT TIME STEP     52, STRESS PERIOD      2
 UBDSV06 SAVING              WEL IN MODEL GWF              PACKAGE GWF             CONNECTED TO MODEL GWF              PACKAGE WEL-1            ON UNIT   1042 AT TIME STEP     52, STRESS PERIOD      2
 UBDSV06 SAVING              API IN MODEL GWF              PACKAGE GWF             CONNECTED TO MODEL GWF              PACKAGE MAR              ON UNIT   1042 AT TIME STEP     52, STRESS PERIOD      2
 UBDSV06 SAVING              CHD IN MODEL GWF              PACKAGE GWF             CONNECTED TO MODEL GWF              PACKAGE CHD_0            ON UNIT   1042 AT TIME STEP     52, STRESS PERIOD      2

    CALCULATED INTERCELL FLOW FOR PERIOD 2 STEP 52
(1,1,1): (1,1,2) 3.444102E-02 (1,2,1) 4.004382E-02
(1,1,2): (1,1,1) -3.444102E-02 (1,1,3) 7.275358E-02 (1,2,2) 7.674826E-02
(1,1,3): (1,1,2) -7.275358E-02 (1,1,4) 0.104651 (1,2,3) 0.159837
(1,1,4): (1,1,3) -0.104651 (1,1,5) 0.101339 (1,2,4) 0.290813
(1,1,5): (1,1,4) -0.101339 (1,1,6) 4.166058E-02 (1,2,5) 0.429153
(1,1,6): (1,1,5) -4.166058E-02 (1,1,7) -4.052011E-02 (1,2,6) 0.484669
(1,1,7): (1,1,6) 4.052011E-02 (1,1,8) -9.862520E-02 (1,2,7) 0.430072
(1,1,8): (1,1,7) 9.862520E-02 (1,1,9) -9.747635E-02 (1,2,8) 0.294025
(1,1,9): (1,1,8) 9.747635E-02 (1,1,10) -5.571186E-02 (1,2,9) 0.169496
(1,1,10): (1,1,9) 5.571186E-02 (1,2,10) 0.102944
(1,2,1): (1,1,1) -4.004382E-02 (1,2,2) 7.114341E-02 (1,3,1) 8.777470E-02
(1,2,2): (1,1,2) -7.674826E-02 (1,2,1) -7.114341E-02 (1,2,3) 0.155839 (1,3,2) 0.175678
(1,2,3): (1,1,3) -0.159837 (1,2,2) -0.155839 (1,2,4) 0.235556 (1,3,3) 0.385233
(1,2,4): (1,1,4) -0.290813 (1,2,3) -0.235556 (1,2,5) 0.239422 (1,3,4) 0.741943
(1,2,5): (1,1,5) -0.429153 (1,2,4) -0.239422 (1,2,6) 9.696703E-02 (1,3,5) 1.15305
(1,2,6): (1,1,6) -0.484669 (1,2,5) -9.696703E-02 (1,2,7) -9.490928E-02 (1,3,6) 1.30861
(1,2,7): (1,1,7) -0.430072 (1,2,6) 9.490928E-02 (1,2,8) -0.234412 (1,3,7) 1.15499
(1,2,8): (1,1,8) -0.294025 (1,2,7) 0.234412 (1,2,9) -0.221916 (1,3,8) 0.748760
(1,2,9): (1,1,9) -0.169496 (1,2,8) 0.221916 (1,2,10) -0.122233 (1,3,9) 0.406103
(1,2,10): (1,1,10) -0.102944 (1,2,9) 0.122233 (1,3,10) 0.234020
(1,3,1): (1,2,1) -8.777470E-02 (1,3,2) 0.159032 (1,4,1) 0.127445
(1,3,2): (1,2,2) -0.175678 (1,3,1) -0.159032 (1,3,3) 0.365352 (1,4,2) 0.274249
(1,3,3): (1,2,3) -0.385233 (1,3,2) -0.365352 (1,3,4) 0.591748 (1,4,3) 0.659416
(1,3,4): (1,2,4) -0.741943 (1,3,3) -0.591748 (1,3,5) 0.648553 (1,4,4) 1.41977
(1,3,5): (1,2,5) -1.15305 (1,3,4) -0.648553 (1,3,6) 0.250976 (1,4,5) 2.47541
(1,3,6): (1,2,6) -1.30861 (1,3,5) -0.250976 (1,3,7) -0.246990 (1,4,6) 2.80680
(1,3,7): (1,2,7) -1.15499 (1,3,6) 0.246990 (1,3,8) -0.638646 (1,4,7) 2.47810
(1,3,8): (1,2,8) -0.748760 (1,3,7) 0.638646 (1,3,9) -0.563961 (1,4,8) 1.42917
(1,3,9): (1,2,9) -0.406103 (1,3,8) 0.563961 (1,3,10) -0.294127 (1,4,9) 0.688920
(1,3,10): (1,2,10) -0.234020 (1,3,9) 0.294127 (1,4,10) 0.360811
(1,4,1): (1,3,1) -0.127445 (1,4,2) 0.305881 (1,5,1) 0.101311
(1,4,2): (1,3,2) -0.274249 (1,4,1) -0.305881 (1,4,3) 0.750861 (1,5,2) 0.250360
(1,4,3): (1,3,3) -0.659416 (1,4,2) -0.750861 (1,4,4) 1.35162 (1,5,3) 0.730707
(1,4,4): (1,3,4) -1.41977 (1,4,3) -1.35162 (1,4,5) 1.69680 (1,5,4) 2.02714
(1,4,5): (1,3,5) -2.47541 (1,4,4) -1.69680 (1,4,6) 0.575897 (1,5,5) 4.75658
(1,4,6): (1,3,6) -2.80680 (1,4,5) -0.575897 (1,4,7) -0.569256 (1,5,6) 5.19578
(1,4,7): (1,3,7) -2.47810 (1,4,6) 0.569256 (1,4,8) -1.68004 (1,5,7) 4.75865
(1,4,8): (1,3,8) -1.42917 (1,4,7) 1.68004 (1,4,9) -1.30334 (1,5,8) 2.03399
(1,4,9): (1,3,9) -0.688920 (1,4,8) 1.30334 (1,4,10) -0.622024 (1,5,9) 0.752862
(1,4,10): (1,3,10) -0.360811 (1,4,9) 0.622024 (1,5,10) 0.321097
(1,5,1): (1,4,1) -0.101311 (1,5,2) 0.455230 (1,6,1) -5.640338E-02
(1,5,2): (1,4,2) -0.250360 (1,5,1) -0.455230 (1,5,3) 1.23351 (1,6,2) -0.100106
(1,5,3): (1,4,3) -0.730707 (1,5,2) -1.23351 (1,5,4) 2.65539 (1,6,3) -4.922394E-02
(1,5,4): (1,4,4) -2.02714 (1,5,3) -2.65539 (1,5,5) 4.41865 (1,6,4) 1.11179
(1,5,5): (1,4,5) -4.75658 (1,5,4) -4.41865 (1,5,6) 1.00115 (1,6,5) 9.13869
(1,5,6): (1,4,6) -5.19578 (1,5,5) -1.00115 (1,5,7) -0.992467 (1,6,6) 8.21694
(1,5,7): (1,4,7) -4.75865 (1,5,6) 0.992467 (1,5,8) -4.39660 (1,6,7) 9.13789
(1,5,8): (1,4,8) -2.03399 (1,5,7) 4.39660 (1,5,9) -2.59089 (1,6,8) 1.10779
(1,5,9): (1,4,9) -0.752862 (1,5,8) 2.59089 (1,5,10) -1.05503 (1,6,9) -6.273094E-02
(1,5,10): (1,4,10) -0.321097 (1,5,9) 1.05503 (1,6,10) -0.139466
(1,6,1): (1,5,1) 5.640338E-02 (1,6,2) 0.411376 (1,7,1) -0.265993
(1,6,2): (1,5,2) 0.100106 (1,6,1) -0.411376 (1,6,3) 1.28499 (1,7,2) -0.724069
(1,6,3): (1,5,3) 4.922394E-02 (1,6,2) -1.28499 (1,6,4) 3.84485 (1,7,3) -2.30836
(1,6,4): (1,5,4) -1.11179 (1,6,3) -3.84485 (1,6,5) 12.6502 (1,7,4) -7.38248
(1,6,5): (1,5,5) -9.13869 (1,6,4) -12.6502 (1,6,6) 0.134712 (1,7,5) -24.7105
(1,6,6): (1,5,6) -8.21694 (1,6,5) -0.134712 (1,6,7) -0.126808 (1,7,6) -37.8331
(1,6,7): (1,5,7) -9.13789 (1,6,6) 0.126808 (1,6,8) -12.6304 (1,7,7) -24.7151
(1,6,8): (1,5,8) -1.10779 (1,6,7) 12.6304 (1,6,9) -3.78953 (1,7,8) -7.39790
(1,6,9): (1,5,9) 6.273094E-02 (1,6,8) 3.78953 (1,6,10) -1.13251 (1,7,9) -2.36361
(1,6,10): (1,5,10) 0.139466 (1,6,9) 1.13251 (1,7,10) -0.918205
(1,7,1): (1,6,1) 0.265993 (1,7,2) -4.531304E-02 (1,8,1) -0.187959
(1,7,2): (1,6,2) 0.724069 (1,7,1) 4.531304E-02 (1,7,3) -0.284627 (1,8,2) -0.526940
(1,7,3): (1,6,3) 2.30836 (1,7,2) 0.284627 (1,7,4) -1.08284 (1,8,3) -1.72698
(1,7,4): (1,6,4) 7.38248 (1,7,3) 1.08284 (1,7,5) -3.31882 (1,8,4) -5.58115
(1,7,5): (1,6,5) 24.7105 (1,7,4) 3.31882 (1,7,6) -10.5930 (1,8,5) -17.9131
(1,7,6): (1,6,6) 37.8331 (1,7,5) 10.5930 (1,7,7) 10.5973 (1,8,6) -59.2867
(1,7,7): (1,6,7) 24.7151 (1,7,6) -10.5973 (1,7,8) 3.32657 (1,8,7) -17.9161
(1,7,8): (1,6,8) 7.39790 (1,7,7) -3.32657 (1,7,9) 1.09686 (1,8,8) -5.59154
(1,7,9): (1,6,9) 2.36361 (1,7,8) -1.09686 (1,7,10) 0.296820 (1,8,9) -1.76515
(1,7,10): (1,6,10) 0.918205 (1,7,9) -0.296820 (1,8,10) -0.664659
(1,8,1): (1,7,1) 0.187959 (1,8,2) -0.383810 (1,9,1) 0.108005
(1,8,2): (1,7,2) 0.526940 (1,8,1) 0.383810 (1,8,3) -1.48175 (1,9,2) 0.307538
(1,8,3): (1,7,3) 1.72698 (1,8,2) 1.48175 (1,8,4) -4.91167 (1,9,3) 1.05493
(1,8,4): (1,7,4) 5.58115 (1,8,3) 4.91167 (1,8,5) -15.3495 (1,9,4) 3.70974
(1,8,5): (1,7,5) 17.9131 (1,8,4) 15.3495 (1,8,6) -48.0010 (1,9,5) 13.3989
(1,8,6): (1,7,6) 59.2867 (1,8,5) 48.0010 (1,8,7) 48.0034 (1,9,6) 51.8552
(1,8,7): (1,7,7) 17.9161 (1,8,6) -48.0034 (1,8,8) 15.3497 (1,9,7) 13.4005
(1,8,8): (1,7,8) 5.59154 (1,8,7) -15.3497 (1,8,9) 4.89715 (1,9,8) 3.71549
(1,8,9): (1,7,9) 1.76515 (1,8,8) -4.89715 (1,8,10) 1.39325 (1,9,9) 1.07653
(1,8,10): (1,7,10) 0.664659 (1,8,9) -1.39325 (1,9,10) 0.386273
(1,9,1): (1,8,1) -0.108005 (1,9,2) -0.184125 (1,10,1) 0.217849
(1,9,2): (1,8,2) -0.307538 (1,9,1) 0.184125 (1,9,3) -0.731143 (1,10,2) 0.579040
(1,9,3): (1,8,3) -1.05493 (1,9,2) 0.731143 (1,9,4) -2.22421 (1,10,3) 1.78283
(1,9,4): (1,8,4) -3.70974 (1,9,3) 2.22421 (1,9,5) -5.46361 (1,10,4) 5.39489
(1,9,5): (1,8,5) -13.3989 (1,9,4) 5.46361 (1,9,6) -10.9230 (1,10,5) 16.5154
(1,9,6): (1,8,6) -51.8552 (1,9,5) 10.9230 (1,9,7) 10.9261 (1,10,6) 27.5548
(1,9,7): (1,8,7) -13.4005 (1,9,6) -10.9261 (1,9,8) 5.46815 (1,10,7) 16.5187
(1,9,8): (1,8,8) -3.71549 (1,9,7) -5.46815 (1,9,9) 2.22628 (1,10,8) 5.40722
(1,9,9): (1,8,9) -1.07653 (1,9,8) -2.22628 (1,9,10) 0.700787 (1,10,9) 1.82800
(1,9,10): (1,8,10) -0.386273 (1,9,9) -0.700787 (1,10,10) 0.736887
(1,10,1): (1,9,1) -0.217849 (1,10,2) 0.175962 (1,11,1) 7.679299E-02
(1,10,2): (1,9,2) -0.579040 (1,10,1) -0.175962 (1,10,3) 0.462419 (1,11,2) 0.179370
(1,10,3): (1,9,3) -1.78283 (1,10,2) -0.462419 (1,10,4) 1.29720 (1,11,3) 0.399684
(1,10,4): (1,9,4) -5.39489 (1,10,3) -1.29720 (1,10,5) 4.86099 (1,11,4) 0.408741
(1,10,5): (1,9,5) -16.5154 (1,10,4) -4.86099 (1,10,6) -1.39572 (1,11,5) -2.42392
(1,10,6): (1,9,6) -27.5548 (1,10,5) 1.39572 (1,10,7) 1.40152 (1,11,6) -0.799416
(1,10,7): (1,9,7) -16.5187 (1,10,6) -1.40152 (1,10,8) -4.84732 (1,11,7) -2.42286
(1,10,8): (1,9,8) -5.40722 (1,10,7) 4.84732 (1,10,9) -1.26210 (1,11,8) 0.413320
(1,10,9): (1,9,9) -1.82800 (1,10,8) 1.26210 (1,10,10) -0.379776 (1,11,9) 0.416399
(1,10,10): (1,9,10) -0.736887 (1,10,9) 0.379776 (1,11,10) 0.234800
(1,11,1): (1,10,1) -7.679299E-02 (1,11,2) 0.278640 (1,12,1) -5.764510E-02
(1,11,2): (1,10,2) -0.179370 (1,11,1) -0.278640 (1,11,3) 0.683339 (1,12,2) -0.122126
(1,11,3): (1,10,3) -0.399684 (1,11,2) -0.683339 (1,11,4) 1.30629 (1,12,3) -0.313442
(1,11,4): (1,10,4) -0.408741 (1,11,3) -1.30629 (1,11,5) 1.96890 (1,12,4) -0.810768
(1,11,5): (1,10,5) 2.42392 (1,11,4) -1.96890 (1,11,6) 0.214612 (1,12,5) -1.86266
(1,11,6): (1,10,6) 0.799416 (1,11,5) -0.214612 (1,11,7) -0.207840 (1,12,6) -1.80178
(1,11,7): (1,10,7) 2.42286 (1,11,6) 0.207840 (1,11,8) -1.95199 (1,12,7) -1.86399
(1,11,8): (1,10,8) -0.413320 (1,11,7) 1.95199 (1,11,9) -1.25895 (1,12,8) -0.815196
(1,11,9): (1,10,9) -0.416399 (1,11,8) 1.25895 (1,11,10) -0.561629 (1,12,9) -0.326822
(1,11,10): (1,10,10) -0.234800 (1,11,9) 0.561629 (1,12,10) -0.160078
(1,12,1): (1,11,1) 5.764510E-02 (1,12,2) 0.214060 (1,13,1) -9.389758E-02
(1,12,2): (1,11,2) 0.122126 (1,12,1) -0.214060 (1,12,3) 0.491336 (1,13,2) -0.187202
(1,12,3): (1,11,3) 0.313442 (1,12,2) -0.491336 (1,12,4) 0.806637 (1,13,3) -0.413291
(1,12,4): (1,11,4) 0.810768 (1,12,3) -0.806637 (1,12,5) 0.915992 (1,13,4) -0.817292
(1,12,5): (1,11,5) 1.86266 (1,12,4) -0.915992 (1,12,6) 0.274556 (1,13,5) -1.32412
(1,12,6): (1,11,6) 1.80178 (1,12,5) -0.274556 (1,12,7) -0.269092 (1,13,6) -1.44748
(1,12,7): (1,11,7) 1.86399 (1,12,6) 0.269092 (1,12,8) -0.902360 (1,13,7) -1.32620
(1,12,8): (1,11,8) 0.815196 (1,12,7) 0.902360 (1,12,9) -0.768536 (1,13,8) -0.824587
(1,12,9): (1,11,9) 0.326822 (1,12,8) 0.768536 (1,12,10) -0.394506 (1,13,9) -0.435572
(1,12,10): (1,11,10) 0.160078 (1,12,9) 0.394506 (1,13,10) -0.249238
(1,13,1): (1,12,1) 9.389758E-02 (1,13,2) 0.120730 (1,14,1) -6.999226E-02
(1,13,2): (1,12,2) 0.187202 (1,13,1) -0.120730 (1,13,3) 0.265074 (1,14,2) -0.133546
(1,13,3): (1,12,3) 0.413291 (1,13,2) -0.265074 (1,13,4) 0.402678 (1,14,3) -0.277085
(1,13,4): (1,12,4) 0.817292 (1,13,3) -0.402678 (1,13,5) 0.411103 (1,14,4) -0.503916
(1,13,5): (1,12,5) 1.32412 (1,13,4) -0.411103 (1,13,6) 0.152522 (1,14,5) -0.744849
(1,13,6): (1,12,6) 1.44748 (1,13,5) -0.152522 (1,13,7) -0.149124 (1,14,6) -0.830082
(1,13,7): (1,12,7) 1.32620 (1,13,6) 0.149124 (1,13,8) -0.402738 (1,14,7) -0.746457
(1,13,8): (1,12,8) 0.824587 (1,13,7) 0.402738 (1,13,9) -0.379730 (1,14,8) -0.509539
(1,13,9): (1,12,9) 0.435572 (1,13,8) 0.379730 (1,13,10) -0.208247 (1,14,9) -0.293980
(1,13,10): (1,12,10) 0.249238 (1,13,9) 0.208247 (1,14,10) -0.179227
(1,14,1): (1,13,1) 6.999226E-02 (1,14,2) 5.718447E-02 (1,15,1) -3.317199E-02
(1,14,2): (1,13,2) 0.133546 (1,14,1) -5.718447E-02 (1,14,3) 0.121552 (1,15,2) -6.149015E-02
(1,14,3): (1,13,3) 0.277085 (1,14,2) -0.121552 (1,14,4) 0.176072 (1,15,3) -0.123220
(1,14,4): (1,13,4) 0.503916 (1,14,3) -0.176072 (1,14,5) 0.170947 (1,15,4) -0.215553
(1,14,5): (1,13,5) 0.744849 (1,14,4) -0.170947 (1,14,6) 6.784250E-02 (1,15,5) -0.307722
(1,14,6): (1,13,6) 0.830082 (1,14,5) -6.784250E-02 (1,14,7) -6.604455E-02 (1,15,6) -0.343592
(1,14,7): (1,13,7) 0.746457 (1,14,6) 6.604455E-02 (1,14,8) -0.166606 (1,15,7) -0.308508
(1,14,8): (1,13,8) 0.509539 (1,14,7) 0.166606 (1,14,9) -0.164444 (1,15,8) -0.218283
(1,14,9): (1,13,9) 0.293980 (1,14,8) 0.164444 (1,14,10) -9.359094E-02 (1,15,9) -0.131309
(1,14,10): (1,13,10) 0.179227 (1,14,9) 9.359094E-02 (1,15,10) -8.290401E-02
(1,15,1): (1,14,1) 3.317199E-02 (1,15,2) 2.886752E-02
(1,15,2): (1,14,2) 6.149015E-02 (1,15,1) -2.886752E-02 (1,15,3) 5.982281E-02
(1,15,3): (1,14,3) 0.123220 (1,15,2) -5.982281E-02 (1,15,4) 8.377500E-02
(1,15,4): (1,14,4) 0.215553 (1,15,3) -8.377500E-02 (1,15,5) 7.890152E-02
(1,15,5): (1,14,5) 0.307722 (1,15,4) -7.890152E-02 (1,15,6) 3.206891E-02
(1,15,6): (1,14,6) 0.343592 (1,15,5) -3.206891E-02 (1,15,7) -3.105558E-02
(1,15,7): (1,14,7) 0.308508 (1,15,6) 3.105558E-02 (1,15,8) -7.650689E-02
(1,15,8): (1,14,8) 0.218283 (1,15,7) 7.650689E-02 (1,15,9) -7.751725E-02
(1,15,9): (1,14,9) 0.131309 (1,15,8) 7.751725E-02 (1,15,10) -4.520372E-02
(1,15,10): (1,14,10) 8.290401E-02 (1,15,9) 4.520372E-02

 WEL PACKAGE (WEL-1) FLOW RATES   PERIOD      2   STEP       52
 ----------------------------------------------------------------------------------------
   NUMBER   CELLID                    RATE       NAME                                    
 ----------------------------------------------------------------------------------------
     1      (1,8,6)              -207.53566      WEL                                     
 ----------------------------------------------------------------------------------------




 API PACKAGE (MAR) FLOW RATES   PERIOD      2   STEP       52
 -----------------------------------------------
   NUMBER   CELLID                    RATE      
 -----------------------------------------------
     1      (1,6,5)               46.666667     
     2      (1,6,6)               46.666667     
     3      (1,6,7)               46.666667     
     4      (1,10,5)              22.511886     
     5      (1,10,6)              22.511886     
     6      (1,10,7)              22.511886     
 -----------------------------------------------



1
  HEAD IN LAYER   1 AT END OF TIME STEP  52 IN STRESS PERIOD    2
  ---------------------------------------------------------------------------

            1           2           3           4           5           6           7           8           9          10
 ........................................................................................................................
   1   4.4447E-03  7.8861E-03  1.5150E-02  2.5589E-02  3.5687E-02  3.9836E-02  3.5800E-02  2.5973E-02  1.6251E-02  1.0688E-02
   2   8.4457E-03  1.5549E-02  3.1085E-02  5.4512E-02  7.8269E-02  8.7881E-02  7.8473E-02  5.5214E-02  3.3144E-02  2.0961E-02
   3   1.7208E-02  3.3059E-02  6.9343E-02  0.1278      0.1914      0.2160      0.1918      0.1291      7.3458E-02  4.4260E-02
   4   2.9915E-02  6.0319E-02  0.1344      0.2661      0.4288      0.4837      0.4294      0.2683      0.1414      8.0055E-02
   5   4.0005E-02  8.5144E-02  0.2060      0.4599      0.8665      0.9579      0.8673      0.4627      0.2151      0.1118    
   6   3.4387E-02  7.5218E-02  0.2012      0.5651       1.651       1.662       1.652      0.5676      0.2089      9.8017E-02
   7   7.8793E-03  3.3516E-03 -2.5102E-02 -0.1337     -0.4700      -1.582     -0.4696     -0.1325     -2.2573E-02  7.0878E-03
   8  -1.0902E-02 -4.9325E-02 -0.1982     -0.6993      -2.350      -8.624      -2.350     -0.6992     -0.1995     -5.9331E-02
   9  -1.0122E-04 -1.8514E-02 -9.1764E-02 -0.3162     -0.8804      -2.078     -0.8801     -0.3155     -9.0847E-02 -2.0624E-02
  10   2.1637E-02  3.9164E-02  8.5016E-02  0.2120      0.6677      0.5369      0.6683      0.2139      9.0316E-02  5.2679E-02
  11   2.9293E-02  5.7000E-02  0.1245      0.2519      0.4405      0.4610      0.4411      0.2542      0.1314      7.5982E-02
  12   2.3546E-02  4.4856E-02  9.3534E-02  0.1728      0.2621      0.2888      0.2626      0.1747      9.9158E-02  6.0094E-02
  13   1.4178E-02  2.6220E-02  5.2588E-02  9.2487E-02  0.1331      0.1481      0.1334      9.3649E-02  5.6028E-02  3.5319E-02
  14   7.1888E-03  1.2900E-02  2.5025E-02  4.2557E-02  5.9551E-02  6.6290E-02  5.9729E-02  4.3168E-02  2.6794E-02  1.7460E-02
  15   3.8740E-03  6.7588E-03  1.2733E-02  2.1093E-02  2.8961E-02  3.2157E-02  2.9062E-02  2.1433E-02  1.3698E-02  9.1838E-03

 HEAD WILL BE SAVED ON UNIT 1043 AT END OF TIME STEP   52, STRESS PERIOD    2


  VOLUME BUDGET FOR ENTIRE MODEL AT END OF TIME STEP   52, STRESS PERIOD   2
  ---------------------------------------------------------------------------------------------------

     CUMULATIVE VOLUME      L**3       RATES FOR THIS TIME STEP      L**3/T          PACKAGE NAME    
     ------------------                 ------------------------                     ----------------

           IN:                                      IN:
           ---                                      ---
              STO-SS =          21.3829                STO-SS =       1.9448E-02     STORAGE                          
              STO-SY =       51830.9469                STO-SY =          40.3652     STORAGE                          
                 WEL =           0.0000                   WEL =           0.0000     WEL-1                            
                 API =      122817.3552                   API =         207.5357     MAR                              
                 CHD =       2.8247E-08                   CHD =           0.0000     CHD_0                            

            TOTAL IN =      174669.6849              TOTAL IN =         247.9203

          OUT:                                     OUT:
          ----                                     ----
              STO-SS =          26.9265                STO-SS =       2.0684E-02     STORAGE                          
              STO-SY =       51825.4032                STO-SY =          40.3639     STORAGE                          
                 WEL =      122817.3552                   WEL =         207.5357     WEL-1                            
                 API =           0.0000                   API =           0.0000     MAR                              
                 CHD =       3.0388E-08                   CHD =           0.0000     CHD_0                            

           TOTAL OUT =      174669.6849             TOTAL OUT =         247.9203

            IN - OUT =       6.7923E-07              IN - OUT =       5.4472E-09

 PERCENT DISCREPANCY =           0.00     PERCENT DISCREPANCY =           0.00




         TIME SUMMARY AT END OF TIME STEP   52 IN STRESS PERIOD    2
                    SECONDS     MINUTES      HOURS       DAYS        YEARS
                    -----------------------------------------------------------
   TIME STEP LENGTH 8.64000E+05  14400.      240.00      10.000     2.73785E-02
 STRESS PERIOD TIME 4.49280E+07 7.48800E+05  12480.      520.00      1.4237    
         TOTAL TIME 4.50144E+07 7.50240E+05  12504.      521.00      1.4264    


end timestep


start timestep kper="2" kstp="53" mode="normal"

 UBDSV1 SAVING           STO-SS ON UNIT   1042 AT TIME STEP     53, STRESS PERIOD      2
 UBDSV1 SAVING           STO-SY ON UNIT   1042 AT TIME STEP     53, STRESS PERIOD      2
 UBDSV1 SAVING     FLOW-JA-FACE ON UNIT   1042 AT TIME STEP     53, STRESS PERIOD      2
 UBDSV06 SAVING       DATA-SPDIS IN MODEL GWF              PACKAGE NPF             CONNECTED TO MODEL GWF              PACKAGE NPF              ON UNIT   1042 AT TIME STEP     53, STRESS PERIOD      2
 UBDSV06 SAVING              WEL IN MODEL GWF              PACKAGE GWF             CONNECTED TO MODEL GWF              PACKAGE WEL-1            ON UNIT   1042 AT TIME STEP     53, STRESS PERIOD      2
 UBDSV06 SAVING              API IN MODEL GWF              PACKAGE GWF             CONNECTED TO MODEL GWF              PACKAGE MAR              ON UNIT   1042 AT TIME STEP     53, STRESS PERIOD      2
 UBDSV06 SAVING              CHD IN MODEL GWF              PACKAGE GWF             CONNECTED TO MODEL GWF              PACKAGE CHD_0            ON UNIT   1042 AT TIME STEP     53, STRESS PERIOD      2

    CALCULATED INTERCELL FLOW FOR PERIOD 2 STEP 53
(1,1,1): (1,1,2) 3.651981E-02 (1,2,1) 4.230133E-02
(1,1,2): (1,1,1) -3.651981E-02 (1,1,3) 7.666504E-02 (1,2,2) 8.019577E-02
(1,1,3): (1,1,2) -7.666504E-02 (1,1,4) 0.109516 (1,2,3) 0.165489
(1,1,4): (1,1,3) -0.109516 (1,1,5) 0.105493 (1,2,4) 0.299138
(1,1,5): (1,1,4) -0.105493 (1,1,6) 4.333379E-02 (1,2,5) 0.439699
(1,1,6): (1,1,5) -4.333379E-02 (1,1,7) -4.205684E-02 (1,2,6) 0.496102
(1,1,7): (1,1,6) 4.205684E-02 (1,1,8) -0.102500 (1,2,7) 0.440698
(1,1,8): (1,1,7) 0.102500 (1,1,9) -0.101715 (1,2,8) 0.302591
(1,1,9): (1,1,8) 0.101715 (1,1,10) -5.837157E-02 (1,2,9) 0.175750
(1,1,10): (1,1,9) 5.837157E-02 (1,2,10) 0.107715
(1,2,1): (1,1,1) -4.230133E-02 (1,2,2) 7.441207E-02 (1,3,1) 9.179275E-02
(1,2,2): (1,1,2) -8.019577E-02 (1,2,1) -7.441207E-02 (1,2,3) 0.161955 (1,3,2) 0.181720
(1,2,3): (1,1,3) -0.165489 (1,2,2) -0.161955 (1,2,4) 0.243092 (1,3,3) 0.394930
(1,2,4): (1,1,4) -0.299138 (1,2,3) -0.243092 (1,2,5) 0.245787 (1,3,4) 0.755894
(1,2,5): (1,1,5) -0.439699 (1,2,4) -0.245787 (1,2,6) 9.951906E-02 (1,3,5) 1.17038
(1,2,6): (1,1,6) -0.496102 (1,2,5) -9.951906E-02 (1,2,7) -9.724550E-02 (1,3,6) 1.32728
(1,2,7): (1,1,7) -0.440698 (1,2,6) 9.724550E-02 (1,2,8) -0.240337 (1,3,7) 1.17247
(1,2,8): (1,1,8) -0.302591 (1,2,7) 0.240337 (1,2,9) -0.228463 (1,3,8) 0.763149
(1,2,9): (1,1,9) -0.175750 (1,2,8) 0.228463 (1,2,10) -0.126374 (1,3,9) 0.416880
(1,2,10): (1,1,10) -0.107715 (1,2,9) 0.126374 (1,3,10) 0.242402
(1,3,1): (1,2,1) -9.179275E-02 (1,3,2) 0.164324 (1,4,1) 0.131449
(1,3,2): (1,2,2) -0.181720 (1,3,1) -0.164324 (1,3,3) 0.375123 (1,4,2) 0.279942
(1,3,3): (1,2,3) -0.394930 (1,3,2) -0.375123 (1,3,4) 0.603523 (1,4,3) 0.667865
(1,3,4): (1,2,4) -0.755894 (1,3,3) -0.603523 (1,3,5) 0.658251 (1,4,4) 1.43087
(1,3,5): (1,2,5) -1.17038 (1,3,4) -0.658251 (1,3,6) 0.254839 (1,4,5) 2.48811
(1,3,6): (1,2,6) -1.32728 (1,3,5) -0.254839 (1,3,7) -0.250491 (1,4,6) 2.82020
(1,3,7): (1,2,7) -1.17247 (1,3,6) 0.250491 (1,3,8) -0.647611 (1,4,7) 2.49096
(1,3,8): (1,2,8) -0.763149 (1,3,7) 0.647611 (1,3,9) -0.574098 (1,4,8) 1.44073
(1,3,9): (1,2,9) -0.416880 (1,3,8) 0.574098 (1,3,10) -0.300654 (1,4,9) 0.698465
(1,3,10): (1,2,10) -0.242402 (1,3,9) 0.300654 (1,4,10) 0.368766
(1,4,1): (1,3,1) -0.131449 (1,4,2) 0.312866 (1,5,1) 0.102066
(1,4,2): (1,3,2) -0.279942 (1,4,1) -0.312866 (1,4,3) 0.763404 (1,5,2) 0.250510
(1,4,3): (1,3,3) -0.667865 (1,4,2) -0.763404 (1,4,4) 1.36606 (1,5,3) 0.729047
(1,4,4): (1,3,4) -1.43087 (1,4,3) -1.36606 (1,4,5) 1.70808 (1,5,4) 2.02213
(1,4,5): (1,3,5) -2.48811 (1,4,4) -1.70808 (1,4,6) 0.580434 (1,5,5) 4.74781
(1,4,6): (1,3,6) -2.82020 (1,4,5) -0.580434 (1,4,7) -0.573269 (1,5,6) 5.18616
(1,4,7): (1,3,7) -2.49096 (1,4,6) 0.573269 (1,4,8) -1.69029 (1,5,7) 4.74996
(1,4,8): (1,3,8) -1.44073 (1,4,7) 1.69029 (1,4,9) -1.31549 (1,5,8) 2.02913
(1,4,9): (1,3,9) -0.698465 (1,4,8) 1.31549 (1,4,10) -0.630135 (1,5,9) 0.751456
(1,4,10): (1,3,10) -0.368766 (1,4,9) 0.630135 (1,5,10) 0.321462
(1,5,1): (1,4,1) -0.102066 (1,5,2) 0.461617 (1,6,1) -6.131832E-02
(1,5,2): (1,4,2) -0.250510 (1,5,1) -0.461617 (1,5,3) 1.24429 (1,6,2) -0.109134
(1,5,3): (1,4,3) -0.729047 (1,5,2) -1.24429 (1,5,4) 2.66664 (1,6,3) -6.640715E-02
(1,5,4): (1,4,4) -2.02213 (1,5,3) -2.66664 (1,5,5) 4.42658 (1,6,4) 1.08436
(1,5,5): (1,4,5) -4.74781 (1,5,4) -4.42658 (1,5,6) 1.00492 (1,6,5) 9.10259
(1,5,6): (1,4,6) -5.18616 (1,5,5) -1.00492 (1,5,7) -0.995640 (1,6,6) 8.18040
(1,5,7): (1,4,7) -4.74996 (1,5,6) 0.995640 (1,5,8) -4.40337 (1,6,7) 9.10167
(1,5,8): (1,4,8) -2.02913 (1,5,7) 4.40337 (1,5,9) -2.59973 (1,6,8) 1.07994
(1,5,9): (1,4,9) -0.751456 (1,5,8) 2.59973 (1,5,10) -1.06140 (1,6,9) -8.114018E-02
(1,5,10): (1,4,10) -0.321462 (1,5,9) 1.06140 (1,6,10) -0.151736
(1,6,1): (1,5,1) 6.131832E-02 (1,6,2) 0.413637 (1,7,1) -0.274497
(1,6,2): (1,5,2) 0.109134 (1,6,1) -0.413637 (1,6,3) 1.28752 (1,7,2) -0.738645
(1,6,3): (1,5,3) 6.640715E-02 (1,6,2) -1.28752 (1,6,4) 3.84589 (1,7,3) -2.33438
(1,6,4): (1,5,4) -1.08436 (1,6,3) -3.84589 (1,6,5) 12.6515 (1,7,4) -7.42150
(1,6,5): (1,5,5) -9.10259 (1,6,4) -12.6515 (1,6,6) 0.137798 (1,7,5) -24.7571
(1,6,6): (1,5,6) -8.18040 (1,6,5) -0.137798 (1,6,7) -0.129403 (1,7,6) -37.8731
(1,6,7): (1,5,7) -9.10167 (1,6,6) 0.129403 (1,6,8) -12.6307 (1,7,7) -24.7620
(1,6,8): (1,5,8) -1.07994 (1,6,7) 12.6307 (1,6,9) -3.78897 (1,7,8) -7.43770
(1,6,9): (1,5,9) 8.114018E-02 (1,6,8) 3.78897 (1,6,10) -1.13267 (1,7,9) -2.39178
(1,6,10): (1,5,10) 0.151736 (1,6,9) 1.13267 (1,7,10) -0.938152
(1,7,1): (1,6,1) 0.274497 (1,7,2) -4.905273E-02 (1,8,1) -0.194029
(1,7,2): (1,6,2) 0.738645 (1,7,1) 4.905273E-02 (1,7,3) -0.293122 (1,8,2) -0.537917
(1,7,3): (1,6,3) 2.33438 (1,7,2) 0.293122 (1,7,4) -1.09300 (1,8,3) -1.74791
(1,7,4): (1,6,4) 7.42150 (1,7,3) 1.09300 (1,7,5) -3.31975 (1,8,4) -5.61420
(1,7,5): (1,6,5) 24.7571 (1,7,4) 3.31975 (1,7,6) -10.5806 (1,8,5) -17.9488
(1,7,6): (1,6,6) 37.8731 (1,7,5) 10.5806 (1,7,7) 10.5852 (1,8,6) -59.2836
(1,7,7): (1,6,7) 24.7620 (1,7,6) -10.5852 (1,7,8) 3.32782 (1,8,7) -17.9519
(1,7,8): (1,6,8) 7.43770 (1,7,7) -3.32782 (1,7,9) 1.10720 (1,8,8) -5.62513
(1,7,9): (1,6,9) 2.39178 (1,7,8) -1.10720 (1,7,10) 0.304451 (1,8,9) -1.78758
(1,7,10): (1,6,10) 0.938152 (1,7,9) -0.304451 (1,8,10) -0.679525
(1,8,1): (1,7,1) 0.194029 (1,8,2) -0.392442 (1,9,1) 0.108521
(1,8,2): (1,7,2) 0.537917 (1,8,1) 0.392442 (1,8,3) -1.50014 (1,9,2) 0.306622
(1,8,3): (1,7,3) 1.74791 (1,8,2) 1.50014 (1,8,4) -4.93343 (1,9,3) 1.04835
(1,8,4): (1,7,4) 5.61420 (1,8,3) 4.93343 (1,8,5) -15.3485 (1,9,4) 3.68697
(1,8,5): (1,7,5) 17.9488 (1,8,4) 15.3485 (1,8,6) -47.9255 (1,9,5) 13.3372
(1,8,6): (1,7,6) 59.2836 (1,8,5) 47.9255 (1,8,7) 47.9281 (1,9,6) 51.6980
(1,8,7): (1,7,7) 17.9519 (1,8,6) -47.9281 (1,8,8) 15.3487 (1,9,7) 13.3389
(1,8,8): (1,7,8) 5.62513 (1,8,7) -15.3487 (1,8,9) 4.91808 (1,9,8) 3.69284
(1,8,9): (1,7,9) 1.78758 (1,8,8) -4.91808 (1,8,10) 1.40834 (1,9,9) 1.07016
(1,8,10): (1,7,10) 0.679525 (1,8,9) -1.40834 (1,9,10) 0.385433
(1,9,1): (1,8,1) -0.108521 (1,9,2) -0.194171 (1,10,1) 0.223208
(1,9,2): (1,8,2) -0.306622 (1,9,1) 0.194171 (1,9,3) -0.755039 (1,10,2) 0.586836
(1,9,3): (1,8,3) -1.04835 (1,9,2) 0.755039 (1,9,4) -2.26111 (1,10,3) 1.79261
(1,9,4): (1,8,4) -3.68697 (1,9,3) 2.26111 (1,9,5) -5.49578 (1,10,4) 5.39711
(1,9,5): (1,8,5) -13.3372 (1,9,4) 5.49578 (1,9,6) -10.9140 (1,10,5) 16.4768
(1,9,6): (1,8,6) -51.6980 (1,9,5) 10.9140 (1,9,7) 10.9173 (1,10,6) 27.4852
(1,9,7): (1,8,7) -13.3389 (1,9,6) -10.9173 (1,9,8) 5.50036 (1,10,7) 16.4803
(1,9,8): (1,8,8) -3.69284 (1,9,7) -5.50036 (1,9,9) 2.26247 (1,10,8) 5.40995
(1,9,9): (1,8,9) -1.07016 (1,9,8) -2.26247 (1,9,10) 0.721271 (1,10,9) 1.83918
(1,9,10): (1,8,10) -0.385433 (1,9,9) -0.721271 (1,10,10) 0.747873
(1,10,1): (1,9,1) -0.223208 (1,10,2) 0.168326 (1,11,1) 8.234605E-02
(1,10,2): (1,9,2) -0.586836 (1,10,1) -0.168326 (1,10,3) 0.440457 (1,11,2) 0.190176
(1,10,3): (1,9,3) -1.79261 (1,10,2) -0.440457 (1,10,4) 1.25293 (1,11,3) 0.422268
(1,10,4): (1,9,4) -5.39711 (1,10,3) -1.25293 (1,10,5) 4.79043 (1,11,4) 0.451301
(1,10,5): (1,9,5) -16.4768 (1,10,4) -4.79043 (1,10,6) -1.41245 (1,11,5) -2.34494
(1,10,6): (1,9,6) -27.4852 (1,10,5) 1.41245 (1,10,7) 1.41855 (1,11,6) -0.716860
(1,10,7): (1,9,7) -16.4803 (1,10,6) -1.41855 (1,10,8) -4.77637 (1,11,7) -2.34377
(1,10,8): (1,9,8) -5.40995 (1,10,7) 4.77637 (1,10,9) -1.21766 (1,11,8) 0.456305
(1,10,9): (1,9,9) -1.83918 (1,10,8) 1.21766 (1,10,10) -0.359433 (1,11,9) 0.440311
(1,10,10): (1,9,10) -0.747873 (1,10,9) 0.359433 (1,11,10) 0.249307
(1,11,1): (1,10,1) -8.234605E-02 (1,11,2) 0.276247 (1,12,1) -5.575782E-02
(1,11,2): (1,10,2) -0.190176 (1,11,1) -0.276247 (1,11,3) 0.673115 (1,12,2) -0.116400
(1,11,3): (1,10,3) -0.422268 (1,11,2) -0.673115 (1,11,4) 1.28215 (1,12,3) -0.297818
(1,11,4): (1,10,4) -0.451301 (1,11,3) -1.28215 (1,11,5) 1.93550 (1,12,4) -0.777173
(1,11,5): (1,10,5) 2.34494 (1,11,4) -1.93550 (1,11,6) 0.202705 (1,12,5) -1.80617
(1,11,6): (1,10,6) 0.716860 (1,11,5) -0.202705 (1,11,7) -0.195525 (1,12,6) -1.73779
(1,11,7): (1,10,7) 2.34377 (1,11,6) 0.195525 (1,11,8) -1.91790 (1,12,7) -1.80751
(1,11,8): (1,10,8) -0.456305 (1,11,7) 1.91790 (1,11,9) -1.23373 (1,12,8) -0.781572
(1,11,9): (1,10,9) -0.440311 (1,11,8) 1.23373 (1,11,10) -0.550640 (1,12,9) -0.310856
(1,11,10): (1,10,10) -0.249307 (1,11,9) 0.550640 (1,12,10) -0.152733
(1,12,1): (1,11,1) 5.575782E-02 (1,12,2) 0.215509 (1,13,1) -9.539269E-02
(1,12,2): (1,11,2) 0.116400 (1,12,1) -0.215509 (1,12,3) 0.491036 (1,13,2) -0.187614
(1,12,3): (1,11,3) 0.297818 (1,12,2) -0.491036 (1,12,4) 0.800511 (1,13,3) -0.409871
(1,12,4): (1,11,4) 0.777173 (1,12,3) -0.800511 (1,12,5) 0.905301 (1,13,4) -0.805628
(1,12,5): (1,11,5) 1.80617 (1,12,4) -0.905301 (1,12,6) 0.270076 (1,13,5) -1.30194
(1,12,6): (1,11,6) 1.73779 (1,12,5) -0.270076 (1,12,7) -0.264218 (1,13,6) -1.42108
(1,12,7): (1,11,7) 1.80751 (1,12,6) 0.264218 (1,12,8) -0.890939 (1,13,7) -1.30413
(1,12,8): (1,11,8) 0.781572 (1,12,7) 0.890939 (1,12,9) -0.761009 (1,13,8) -0.813193
(1,12,9): (1,11,9) 0.310856 (1,12,8) 0.761009 (1,12,10) -0.392150 (1,13,9) -0.432654
(1,12,10): (1,11,10) 0.152733 (1,12,9) 0.392150 (1,13,10) -0.250189
(1,13,1): (1,12,1) 9.539269E-02 (1,13,2) 0.123263 (1,14,1) -7.246105E-02
(1,13,2): (1,12,2) 0.187614 (1,13,1) -0.123263 (1,13,3) 0.268603 (1,14,2) -0.136460
(1,13,3): (1,12,3) 0.409871 (1,13,2) -0.268603 (1,13,4) 0.404774 (1,14,3) -0.280013
(1,13,4): (1,12,4) 0.805628 (1,13,3) -0.404774 (1,13,5) 0.410829 (1,14,4) -0.505319
(1,13,5): (1,12,5) 1.30194 (1,13,4) -0.410829 (1,13,6) 0.152193 (1,14,5) -0.743537
(1,13,6): (1,12,6) 1.42108 (1,13,5) -0.152193 (1,13,7) -0.148504 (1,14,6) -0.827545
(1,13,7): (1,12,7) 1.30413 (1,13,6) 0.148504 (1,13,8) -0.401902 (1,14,7) -0.745255
(1,13,8): (1,12,8) 0.813193 (1,13,7) 0.401902 (1,13,9) -0.380660 (1,14,8) -0.511254
(1,13,9): (1,12,9) 0.432654 (1,13,8) 0.380660 (1,13,10) -0.209758 (1,14,9) -0.297613
(1,13,10): (1,12,10) 0.250189 (1,13,9) 0.209758 (1,14,10) -0.183432
(1,14,1): (1,13,1) 7.246105E-02 (1,14,2) 5.927253E-02 (1,15,1) -3.476422E-02
(1,14,2): (1,13,2) 0.136460 (1,14,1) -5.927253E-02 (1,14,3) 0.125066 (1,15,2) -6.363699E-02
(1,14,3): (1,13,3) 0.280013 (1,14,2) -0.125066 (1,14,4) 0.179689 (1,15,3) -0.126138
(1,14,4): (1,13,4) 0.505319 (1,14,3) -0.179689 (1,14,5) 0.173376 (1,15,4) -0.218930
(1,14,5): (1,13,5) 0.743537 (1,14,4) -0.173376 (1,14,6) 6.872886E-02 (1,15,5) -0.311047
(1,14,6): (1,13,6) 0.827545 (1,14,5) -6.872886E-02 (1,14,7) -6.675002E-02 (1,15,6) -0.346838
(1,14,7): (1,13,7) 0.745255 (1,14,6) 6.675002E-02 (1,14,8) -0.168677 (1,15,7) -0.311896
(1,14,8): (1,13,8) 0.511254 (1,14,7) 0.168677 (1,14,9) -0.167291 (1,15,8) -0.221846
(1,14,9): (1,13,9) 0.297613 (1,14,8) 0.167291 (1,14,10) -9.567580E-02 (1,15,9) -0.134667
(1,14,10): (1,13,10) 0.183432 (1,14,9) 9.567580E-02 (1,15,10) -8.593048E-02
(1,15,1): (1,14,1) 3.476422E-02 (1,15,2) 3.040102E-02
(1,15,2): (1,14,2) 6.363699E-02 (1,15,1) -3.040102E-02 (1,15,3) 6.256490E-02
(1,15,3): (1,14,3) 0.126138 (1,15,2) -6.256490E-02 (1,15,4) 8.693304E-02
(1,15,4): (1,14,4) 0.218930 (1,15,3) -8.693304E-02 (1,15,5) 8.138397E-02
(1,15,5): (1,14,5) 0.311047 (1,15,4) -8.138397E-02 (1,15,6) 3.303603E-02
(1,15,6): (1,14,6) 0.346838 (1,15,5) -3.303603E-02 (1,15,7) -3.190478E-02
(1,15,7): (1,14,7) 0.311896 (1,15,6) 3.190478E-02 (1,15,8) -7.875305E-02
(1,15,8): (1,14,8) 0.221846 (1,15,7) 7.875305E-02 (1,15,9) -8.015898E-02
(1,15,9): (1,14,9) 0.134667 (1,15,8) 8.015898E-02 (1,15,10) -4.695813E-02
(1,15,10): (1,14,10) 8.593048E-02 (1,15,9) 4.695813E-02

 WEL PACKAGE (WEL-1) FLOW RATES   PERIOD      2   STEP       53
 ----------------------------------------------------------------------------------------
   NUMBER   CELLID                    RATE       NAME                                    
 ----------------------------------------------------------------------------------------
     1      (1,8,6)              -207.20975      WEL                                     
 ----------------------------------------------------------------------------------------




 API PACKAGE (MAR) FLOW RATES   PERIOD      2   STEP       53
 -----------------------------------------------
   NUMBER   CELLID                    RATE      
 -----------------------------------------------
     1      (1,6,5)               46.666667     
     2      (1,6,6)               46.666667     
     3      (1,6,7)               46.666667     
     4      (1,10,5)              22.403248     
     5      (1,10,6)              22.403248     
     6      (1,10,7)              22.403248     
 -----------------------------------------------



1
  HEAD IN LAYER   1 AT END OF TIME STEP  53 IN STRESS PERIOD    2
  ---------------------------------------------------------------------------

            1           2           3           4           5           6           7           8           9          10
 ........................................................................................................................
   1   4.8386E-03  8.4875E-03  1.6142E-02  2.7064E-02  3.7573E-02  4.1889E-02  3.7701E-02  2.7489E-02  1.7346E-02  1.1518E-02
   2   9.0649E-03  1.6494E-02  3.2637E-02  5.6809E-02  8.1189E-02  9.1051E-02  8.1415E-02  5.7575E-02  3.4859E-02  2.2266E-02
   3   1.8227E-02  3.4603E-02  7.1848E-02  0.1314      0.1960      0.2209      0.1964      0.1329      7.6232E-02  4.6394E-02
   4   3.1331E-02  6.2424E-02  0.1377      0.2707      0.4344      0.4898      0.4351      0.2731      0.1451      8.2967E-02
   5   4.1496E-02  8.7258E-02  0.2091      0.4640      0.8712      0.9628      0.8720      0.4670      0.2186      0.1147    
   6   3.5389E-02  7.6439E-02  0.2026      0.5666       1.652       1.664       1.653      0.5692      0.2107      9.9747E-02
   7   8.0363E-03  3.1350E-03 -2.6168E-02 -0.1358     -0.4723      -1.583     -0.4719     -0.1345     -2.3565E-02  6.8588E-03
   8  -1.1351E-02 -5.0640E-02 -0.2014     -0.7049      -2.356      -8.626      -2.356     -0.7047     -0.2027     -6.1047E-02
   9  -4.9844E-04 -1.9916E-02 -9.5571E-02 -0.3239     -0.8918      -2.090     -0.8915     -0.3231     -9.4706E-02 -2.2417E-02
  10   2.1774E-02  3.8542E-02  8.2228E-02  0.2050      0.6546      0.5220      0.6552      0.2069      8.7614E-02  5.1983E-02
  11   2.9984E-02  5.7451E-02  0.1239      0.2490      0.4345      0.4539      0.4352      0.2514      0.1311      7.6724E-02
  12   2.4425E-02  4.5877E-02  9.4521E-02  0.1732      0.2614      0.2877      0.2620      0.1752      0.1004      6.1567E-02
  13   1.4909E-02  2.7202E-02  5.3918E-02  9.4018E-02  0.1346      0.1496      0.1349      9.5264E-02  5.7557E-02  3.6701E-02
  14   7.6734E-03  1.3593E-02  2.6067E-02  4.3957E-02  6.1189E-02  6.8016E-02  6.1386E-02  4.4621E-02  2.7966E-02  1.8425E-02
  15   4.1996E-03  7.2375E-03  1.3486E-02  2.2160E-02  3.0274E-02  3.3566E-02  3.0386E-02  2.2535E-02  1.4537E-02  9.8479E-03

 HEAD WILL BE SAVED ON UNIT 1043 AT END OF TIME STEP   53, STRESS PERIOD    2


  VOLUME BUDGET FOR ENTIRE MODEL AT END OF TIME STEP   53, STRESS PERIOD   2
  ---------------------------------------------------------------------------------------------------

     CUMULATIVE VOLUME      L**3       RATES FOR THIS TIME STEP      L**3/T          PACKAGE NAME    
     ------------------                 ------------------------                     ----------------

           IN:                                      IN:
           ---                                      ---
              STO-SS =          21.5747                STO-SS =       1.9184E-02     STORAGE                          
              STO-SY =       52228.9830                STO-SY =          39.8036     STORAGE                          
                 WEL =           0.0000                   WEL =           0.0000     WEL-1                            
                 API =      124889.4527                   API =         207.2097     MAR                              
                 CHD =       2.8247E-08                   CHD =           0.0000     CHD_0                            

            TOTAL IN =      177140.0104              TOTAL IN =         247.0325

          OUT:                                     OUT:
          ----                                     ----
              STO-SS =          27.1305                STO-SS =       2.0396E-02     STORAGE                          
              STO-SY =       52223.4272                STO-SY =          39.8024     STORAGE                          
                 WEL =      124889.4526                   WEL =         207.2097     WEL-1                            
                 API =           0.0000                   API =           0.0000     MAR                              
                 CHD =       3.0388E-08                   CHD =           0.0000     CHD_0                            

           TOTAL OUT =      177140.0104             TOTAL OUT =         247.0325

            IN - OUT =       7.3641E-07              IN - OUT =       5.7177E-09

 PERCENT DISCREPANCY =           0.00     PERCENT DISCREPANCY =           0.00




         TIME SUMMARY AT END OF TIME STEP   53 IN STRESS PERIOD    2
                    SECONDS     MINUTES      HOURS       DAYS        YEARS
                    -----------------------------------------------------------
   TIME STEP LENGTH 8.64000E+05  14400.      240.00      10.000     2.73785E-02
 STRESS PERIOD TIME 4.57920E+07 7.63200E+05  12720.      530.00      1.4511    
         TOTAL TIME 4.58784E+07 7.64640E+05  12744.      531.00      1.4538    


end timestep


start timestep kper="2" kstp="54" mode="normal"

 UBDSV1 SAVING           STO-SS ON UNIT   1042 AT TIME STEP     54, STRESS PERIOD      2
 UBDSV1 SAVING           STO-SY ON UNIT   1042 AT TIME STEP     54, STRESS PERIOD      2
 UBDSV1 SAVING     FLOW-JA-FACE ON UNIT   1042 AT TIME STEP     54, STRESS PERIOD      2
 UBDSV06 SAVING       DATA-SPDIS IN MODEL GWF              PACKAGE NPF             CONNECTED TO MODEL GWF              PACKAGE NPF              ON UNIT   1042 AT TIME STEP     54, STRESS PERIOD      2
 UBDSV06 SAVING              WEL IN MODEL GWF              PACKAGE GWF             CONNECTED TO MODEL GWF              PACKAGE WEL-1            ON UNIT   1042 AT TIME STEP     54, STRESS PERIOD      2
 UBDSV06 SAVING              API IN MODEL GWF              PACKAGE GWF             CONNECTED TO MODEL GWF              PACKAGE MAR              ON UNIT   1042 AT TIME STEP     54, STRESS PERIOD      2
 UBDSV06 SAVING              CHD IN MODEL GWF              PACKAGE GWF             CONNECTED TO MODEL GWF              PACKAGE CHD_0            ON UNIT   1042 AT TIME STEP     54, STRESS PERIOD      2

    CALCULATED INTERCELL FLOW FOR PERIOD 2 STEP 54
(1,1,1): (1,1,2) 3.864341E-02 (1,2,1) 4.458974E-02
(1,1,2): (1,1,1) -3.864341E-02 (1,1,3) 8.063894E-02 (1,2,2) 8.364652E-02
(1,1,3): (1,1,2) -8.063894E-02 (1,1,4) 0.114428 (1,2,3) 0.171079
(1,1,4): (1,1,3) -0.114428 (1,1,5) 0.109667 (1,2,4) 0.307303
(1,1,5): (1,1,4) -0.109667 (1,1,6) 4.501440E-02 (1,2,5) 0.449991
(1,1,6): (1,1,5) -4.501440E-02 (1,1,7) -4.358923E-02 (1,2,6) 0.507243
(1,1,7): (1,1,6) 4.358923E-02 (1,1,8) -0.106377 (1,2,7) 0.451073
(1,1,8): (1,1,7) 0.106377 (1,1,9) -0.105968 (1,2,8) 0.311004
(1,1,9): (1,1,8) 0.105968 (1,1,10) -6.104825E-02 (1,2,9) 0.181953
(1,1,10): (1,1,9) 6.104825E-02 (1,2,10) 0.112494
(1,2,1): (1,1,1) -4.458974E-02 (1,2,2) 7.769788E-02 (1,3,1) 9.581726E-02
(1,2,2): (1,1,2) -8.364652E-02 (1,2,1) -7.769788E-02 (1,2,3) 0.168068 (1,3,2) 0.187692
(1,2,3): (1,1,3) -0.171079 (1,2,2) -0.168068 (1,2,4) 0.250576 (1,3,3) 0.404391
(1,2,4): (1,1,4) -0.307303 (1,2,3) -0.250576 (1,2,5) 0.252079 (1,3,4) 0.769381
(1,2,5): (1,1,5) -0.449991 (1,2,4) -0.252079 (1,2,6) 0.102041 (1,3,5) 1.18704
(1,2,6): (1,1,6) -0.507243 (1,2,5) -0.102041 (1,2,7) -9.953652E-02 (1,3,6) 1.34521
(1,2,7): (1,1,7) -0.451073 (1,2,6) 9.953652E-02 (1,2,8) -0.246165 (1,3,7) 1.18928
(1,2,8): (1,1,8) -0.311004 (1,2,7) 0.246165 (1,2,9) -0.234922 (1,3,8) 0.777084
(1,2,9): (1,1,9) -0.181953 (1,2,8) 0.234922 (1,2,10) -0.130471 (1,3,9) 0.427428
(1,2,10): (1,1,10) -0.112494 (1,2,9) 0.130471 (1,3,10) 0.250693
(1,3,1): (1,2,1) -9.581726E-02 (1,3,2) 0.169556 (1,4,1) 0.135371
(1,3,2): (1,2,2) -0.187692 (1,3,1) -0.169556 (1,3,3) 0.384725 (1,4,2) 0.285431
(1,3,3): (1,2,3) -0.404391 (1,3,2) -0.384725 (1,3,4) 0.615021 (1,4,3) 0.675876
(1,3,4): (1,2,4) -0.769381 (1,3,3) -0.615021 (1,3,5) 0.667680 (1,4,4) 1.44126
(1,3,5): (1,2,5) -1.18704 (1,3,4) -0.667680 (1,3,6) 0.258598 (1,4,5) 2.49991
(1,3,6): (1,2,6) -1.34521 (1,3,5) -0.258598 (1,3,7) -0.253867 (1,4,6) 2.83263
(1,3,7): (1,2,7) -1.18928 (1,3,6) 0.253867 (1,3,8) -0.656280 (1,4,7) 2.50293
(1,3,8): (1,2,8) -0.777084 (1,3,7) 0.656280 (1,3,9) -0.583924 (1,4,8) 1.45159
(1,3,9): (1,2,9) -0.427428 (1,3,8) 0.583924 (1,3,10) -0.306998 (1,4,9) 0.707555
(1,3,10): (1,2,10) -0.250693 (1,3,9) 0.306998 (1,4,10) 0.376443
(1,4,1): (1,3,1) -0.135371 (1,4,2) 0.319667 (1,5,1) 0.102672
(1,4,2): (1,3,2) -0.285431 (1,4,1) -0.319667 (1,4,3) 0.775547 (1,5,2) 0.250428
(1,4,3): (1,3,3) -0.675876 (1,4,2) -0.775547 (1,4,4) 1.37996 (1,5,3) 0.727059
(1,4,4): (1,3,4) -1.44126 (1,4,3) -1.37996 (1,4,5) 1.71892 (1,5,4) 2.01679
(1,4,5): (1,3,5) -2.49991 (1,4,4) -1.71892 (1,4,6) 0.584801 (1,5,5) 4.73883
(1,4,6): (1,3,6) -2.83263 (1,4,5) -0.584801 (1,4,7) -0.577089 (1,5,6) 5.17636
(1,4,7): (1,3,7) -2.50293 (1,4,6) 0.577089 (1,4,8) -1.70005 (1,5,7) 4.74105
(1,4,8): (1,3,8) -1.45159 (1,4,7) 1.70005 (1,4,9) -1.32709 (1,5,8) 2.02393
(1,4,9): (1,3,9) -0.707555 (1,4,8) 1.32709 (1,4,10) -0.637887 (1,5,9) 0.749682
(1,4,10): (1,3,10) -0.376443 (1,4,9) 0.637887 (1,5,10) 0.321497
(1,5,1): (1,4,1) -0.102672 (1,5,2) 0.467738 (1,6,1) -6.633094E-02
(1,5,2): (1,4,2) -0.250428 (1,5,1) -0.467738 (1,5,3) 1.25457 (1,6,2) -0.118180
(1,5,3): (1,4,3) -0.727059 (1,5,2) -1.25457 (1,5,4) 2.67735 (1,6,3) -8.335440E-02
(1,5,4): (1,4,4) -2.01679 (1,5,3) -2.67735 (1,5,5) 4.43415 (1,6,4) 1.05765
(1,5,5): (1,4,5) -4.73883 (1,5,4) -4.43415 (1,5,6) 1.00856 (1,6,5) 9.06771
(1,5,6): (1,4,6) -5.17636 (1,5,5) -1.00856 (1,5,7) -0.998658 (1,6,6) 8.14518
(1,5,7): (1,4,7) -4.74105 (1,5,6) 0.998658 (1,5,8) -4.40978 (1,6,7) 9.06667
(1,5,8): (1,4,8) -2.02393 (1,5,7) 4.40978 (1,5,9) -2.60803 (1,6,8) 1.05280
(1,5,9): (1,4,9) -0.749682 (1,5,8) 2.60803 (1,5,10) -1.06736 (1,6,9) -9.934803E-02
(1,5,10): (1,4,10) -0.321497 (1,5,9) 1.06736 (1,6,10) -0.164062
(1,6,1): (1,5,1) 6.633094E-02 (1,6,2) 0.415711 (1,7,1) -0.282999
(1,6,2): (1,5,2) 0.118180 (1,6,1) -0.415711 (1,6,3) 1.28981 (1,7,2) -0.753019
(1,6,3): (1,5,3) 8.335440E-02 (1,6,2) -1.28981 (1,6,4) 3.84686 (1,7,3) -2.35972
(1,6,4): (1,5,4) -1.05765 (1,6,3) -3.84686 (1,6,5) 12.6528 (1,7,4) -7.45917
(1,6,5): (1,5,5) -9.06771 (1,6,4) -12.6528 (1,6,6) 0.140844 (1,7,5) -24.8018
(1,6,6): (1,5,6) -8.14518 (1,6,5) -0.140844 (1,6,7) -0.131945 (1,7,6) -37.9115
(1,6,7): (1,5,7) -9.06667 (1,6,6) 0.131945 (1,6,8) -12.6311 (1,7,7) -24.8069
(1,6,8): (1,5,8) -1.05280 (1,6,7) 12.6311 (1,6,9) -3.78837 (1,7,8) -7.47617
(1,6,9): (1,5,9) 9.934803E-02 (1,6,8) 3.78837 (1,6,10) -1.13269 (1,7,9) -2.41928
(1,6,10): (1,5,10) 0.164062 (1,6,9) 1.13269 (1,7,10) -0.957854
(1,7,1): (1,6,1) 0.282999 (1,7,2) -5.277958E-02 (1,8,1) -0.200135
(1,7,2): (1,6,2) 0.753019 (1,7,1) 5.277958E-02 (1,7,3) -0.301392 (1,8,2) -0.548822
(1,7,3): (1,6,3) 2.35972 (1,7,2) 0.301392 (1,7,4) -1.10260 (1,8,3) -1.76847
(1,7,4): (1,6,4) 7.45917 (1,7,3) 1.10260 (1,7,5) -3.32031 (1,8,4) -5.64644
(1,7,5): (1,6,5) 24.8018 (1,7,4) 3.32031 (1,7,6) -10.5686 (1,8,5) -17.9835
(1,7,6): (1,6,6) 37.9115 (1,7,5) 10.5686 (1,7,7) 10.5734 (1,8,6) -59.2812
(1,7,7): (1,6,7) 24.8069 (1,7,6) -10.5734 (1,7,8) 3.32870 (1,8,7) -17.9869
(1,7,8): (1,6,8) 7.47617 (1,7,7) -3.32870 (1,7,9) 1.11696 (1,8,8) -5.65791
(1,7,9): (1,6,9) 2.41928 (1,7,8) -1.11696 (1,7,10) 0.311808 (1,8,9) -1.80966
(1,7,10): (1,6,10) 0.957854 (1,7,9) -0.311808 (1,8,10) -0.694314
(1,8,1): (1,7,1) 0.200135 (1,8,2) -0.400953 (1,9,1) 0.108882
(1,8,2): (1,7,2) 0.548822 (1,8,1) 0.400953 (1,8,3) -1.51801 (1,9,2) 0.305450
(1,8,3): (1,7,3) 1.76847 (1,8,2) 1.51801 (1,8,4) -4.95418 (1,9,3) 1.04144
(1,8,4): (1,7,4) 5.64644 (1,8,3) 4.95418 (1,8,5) -15.3472 (1,9,4) 3.66417
(1,8,5): (1,7,5) 17.9835 (1,8,4) 15.3472 (1,8,6) -47.8527 (1,9,5) 13.2768
(1,8,6): (1,7,6) 59.2812 (1,8,5) 47.8527 (1,8,7) 47.8555 (1,9,6) 51.5453
(1,8,7): (1,7,7) 17.9869 (1,8,6) -47.8555 (1,8,8) 15.3473 (1,9,7) 13.2785
(1,8,8): (1,7,8) 5.65791 (1,8,7) -15.3473 (1,8,9) 4.93796 (1,9,8) 3.67015
(1,8,9): (1,7,9) 1.80966 (1,8,8) -4.93796 (1,8,10) 1.42288 (1,9,9) 1.06342
(1,8,10): (1,7,10) 0.694314 (1,8,9) -1.42288 (1,9,10) 0.384232
(1,9,1): (1,8,1) -0.108882 (1,9,2) -0.204196 (1,10,1) 0.228452
(1,9,2): (1,8,2) -0.305450 (1,9,1) 0.204196 (1,9,3) -0.778493 (1,10,2) 0.594326
(1,9,3): (1,8,3) -1.04144 (1,9,2) 0.778493 (1,9,4) -2.29673 (1,10,3) 1.80177
(1,9,4): (1,8,4) -3.66417 (1,9,3) 2.29673 (1,9,5) -5.52640 (1,10,4) 5.39860
(1,9,5): (1,8,5) -13.2768 (1,9,4) 5.52640 (1,9,6) -10.9052 (1,10,5) 16.4388
(1,9,6): (1,8,6) -51.5453 (1,9,5) 10.9052 (1,9,7) 10.9086 (1,10,6) 27.4170
(1,9,7): (1,8,7) -13.2785 (1,9,6) -10.9086 (1,9,8) 5.53101 (1,10,7) 16.4425
(1,9,8): (1,8,8) -3.67015 (1,9,7) -5.53101 (1,9,9) 2.29732 (1,10,8) 5.41197
(1,9,9): (1,8,9) -1.06342 (1,9,8) -2.29732 (1,9,10) 0.741220 (1,10,9) 1.84971
(1,9,10): (1,8,10) -0.384232 (1,9,9) -0.741220 (1,10,10) 0.758448
(1,10,1): (1,9,1) -0.228452 (1,10,2) 0.160521 (1,11,1) 8.795946E-02
(1,10,2): (1,9,2) -0.594326 (1,10,1) -0.160521 (1,10,3) 0.418629 (1,11,2) 0.200889
(1,10,3): (1,9,3) -1.80177 (1,10,2) -0.418629 (1,10,4) 1.20991 (1,11,3) 0.444274
(1,10,4): (1,9,4) -5.39860 (1,10,3) -1.20991 (1,10,5) 4.72261 (1,11,4) 0.492247
(1,10,5): (1,9,5) -16.4388 (1,10,4) -4.72261 (1,10,6) -1.42845 (1,11,5) -2.26942
(1,10,6): (1,9,6) -27.4170 (1,10,5) 1.42845 (1,10,7) 1.43484 (1,11,6) -0.638099
(1,10,7): (1,9,7) -16.4425 (1,10,6) -1.43484 (1,10,8) -4.70819 (1,11,7) -2.26812
(1,10,8): (1,9,8) -5.41197 (1,10,7) 4.70819 (1,10,9) -1.17454 (1,11,8) 0.497691
(1,10,9): (1,9,9) -1.84971 (1,10,8) 1.17454 (1,10,10) -0.339398 (1,11,9) 0.463670
(1,10,10): (1,9,10) -0.758448 (1,10,9) 0.339398 (1,11,10) 0.263729
(1,11,1): (1,10,1) -8.795946E-02 (1,11,2) 0.273532 (1,12,1) -5.366983E-02
(1,11,2): (1,10,2) -0.200889 (1,11,1) -0.273532 (1,11,3) 0.662530 (1,12,2) -0.110441
(1,11,3): (1,10,3) -0.444274 (1,11,2) -0.662530 (1,11,4) 1.25819 (1,12,3) -0.282087
(1,11,4): (1,10,4) -0.492247 (1,11,3) -1.25819 (1,11,5) 1.90301 (1,12,4) -0.744044
(1,11,5): (1,10,5) 2.26942 (1,11,4) -1.90301 (1,11,6) 0.191153 (1,12,5) -1.75113
(1,11,6): (1,10,6) 0.638099 (1,11,5) -0.191153 (1,11,7) -0.183559 (1,12,6) -1.67561
(1,11,7): (1,10,7) 2.26812 (1,11,6) 0.183559 (1,11,8) -1.88474 (1,12,7) -1.75248
(1,11,8): (1,10,8) -0.497691 (1,11,7) 1.88474 (1,11,9) -1.20876 (1,12,8) -0.748394
(1,11,9): (1,10,9) -0.463670 (1,11,8) 1.20876 (1,11,10) -0.539486 (1,12,9) -0.294726
(1,11,10): (1,10,10) -0.263729 (1,11,9) 0.539486 (1,12,10) -0.145035
(1,12,1): (1,11,1) 5.366983E-02 (1,12,2) 0.216669 (1,13,1) -9.671011E-02
(1,12,2): (1,11,2) 0.110441 (1,12,1) -0.216669 (1,12,3) 0.490250 (1,13,2) -0.187712
(1,12,3): (1,11,3) 0.282087 (1,12,2) -0.490250 (1,12,4) 0.793988 (1,13,3) -0.405961
(1,12,4): (1,11,4) 0.744044 (1,12,3) -0.793988 (1,12,5) 0.894544 (1,13,4) -0.793448
(1,12,5): (1,11,5) 1.75113 (1,12,4) -0.894544 (1,12,6) 0.265596 (1,13,5) -1.27945
(1,12,6): (1,11,6) 1.67561 (1,12,5) -0.265596 (1,12,7) -0.259333 (1,13,6) -1.39447
(1,12,7): (1,11,7) 1.75248 (1,12,6) 0.259333 (1,12,8) -0.879447 (1,13,7) -1.28174
(1,12,8): (1,11,8) 0.748394 (1,12,7) 0.879447 (1,12,9) -0.753116 (1,13,8) -0.801271
(1,12,9): (1,11,9) 0.294726 (1,12,8) 0.753116 (1,12,10) -0.389440 (1,13,9) -0.429201
(1,12,10): (1,11,10) 0.145035 (1,12,9) 0.389440 (1,13,10) -0.250699
(1,13,1): (1,12,1) 9.671011E-02 (1,13,2) 0.125641 (1,14,1) -7.485248E-02
(1,13,2): (1,12,2) 0.187712 (1,13,1) -0.125641 (1,13,3) 0.271822 (1,14,2) -0.139184
(1,13,3): (1,12,3) 0.405961 (1,13,2) -0.271822 (1,13,4) 0.406498 (1,14,3) -0.282549
(1,13,4): (1,12,4) 0.793448 (1,13,3) -0.406498 (1,13,5) 0.410293 (1,14,4) -0.506123
(1,13,5): (1,12,5) 1.27945 (1,13,4) -0.410293 (1,13,6) 0.151769 (1,14,5) -0.741511
(1,13,6): (1,12,6) 1.39447 (1,13,5) -0.151769 (1,13,7) -0.147777 (1,14,6) -0.824256
(1,13,7): (1,12,7) 1.28174 (1,13,6) 0.147777 (1,13,8) -0.400789 (1,14,7) -0.743340
(1,13,8): (1,12,8) 0.801271 (1,13,7) 0.400789 (1,13,9) -0.381218 (1,14,8) -0.512371
(1,13,9): (1,12,9) 0.429201 (1,13,8) 0.381218 (1,13,10) -0.211008 (1,14,9) -0.300838
(1,13,10): (1,12,10) 0.250699 (1,13,9) 0.211008 (1,14,10) -0.187379
(1,14,1): (1,13,1) 7.485248E-02 (1,14,2) 6.131808E-02 (1,15,1) -3.634350E-02
(1,14,2): (1,13,2) 0.139184 (1,14,1) -6.131808E-02 (1,14,3) 0.128472 (1,15,2) -6.572031E-02
(1,14,3): (1,13,3) 0.282549 (1,14,2) -0.128472 (1,14,4) 0.183142 (1,15,3) -0.128892
(1,14,4): (1,13,4) 0.506123 (1,14,3) -0.183142 (1,14,5) 0.175657 (1,15,4) -0.222015
(1,14,5): (1,13,5) 0.741511 (1,14,4) -0.175657 (1,14,6) 6.955714E-02 (1,15,5) -0.313978
(1,14,6): (1,13,6) 0.824256 (1,14,5) -6.955714E-02 (1,14,7) -6.738586E-02 (1,15,6) -0.349650
(1,14,7): (1,13,7) 0.743340 (1,14,6) 6.738586E-02 (1,14,8) -0.170583 (1,15,7) -0.314892
(1,14,8): (1,13,8) 0.512371 (1,14,7) 0.170583 (1,14,9) -0.169955 (1,15,8) -0.225119
(1,14,9): (1,13,9) 0.300838 (1,14,8) 0.169955 (1,14,10) -9.764835E-02 (1,15,9) -0.137859
(1,14,10): (1,13,10) 0.187379 (1,14,9) 9.764835E-02 (1,15,10) -8.887304E-02
(1,15,1): (1,14,1) 3.634350E-02 (1,15,2) 3.194256E-02
(1,15,2): (1,14,2) 6.572031E-02 (1,15,1) -3.194256E-02 (1,15,3) 6.530059E-02
(1,15,3): (1,14,3) 0.128892 (1,15,2) -6.530059E-02 (1,15,4) 9.005472E-02
(1,15,4): (1,14,4) 0.222015 (1,15,3) -9.005472E-02 (1,15,5) 8.381924E-02
(1,15,5): (1,14,5) 0.313978 (1,15,4) -8.381924E-02 (1,15,6) 3.398346E-02
(1,15,6): (1,14,6) 0.349650 (1,15,5) -3.398346E-02 (1,15,7) -3.272479E-02
(1,15,7): (1,14,7) 0.314892 (1,15,6) 3.272479E-02 (1,15,8) -8.093756E-02
(1,15,8): (1,14,8) 0.225119 (1,15,7) 8.093756E-02 (1,15,9) -8.274245E-02
(1,15,9): (1,14,9) 0.137859 (1,15,8) 8.274245E-02 (1,15,10) -4.868214E-02
(1,15,10): (1,14,10) 8.887304E-02 (1,15,9) 4.868214E-02

 WEL PACKAGE (WEL-1) FLOW RATES   PERIOD      2   STEP       54
 ----------------------------------------------------------------------------------------
   NUMBER   CELLID                    RATE       NAME                                    
 ----------------------------------------------------------------------------------------
     1      (1,8,6)              -206.89538      WEL                                     
 ----------------------------------------------------------------------------------------




 API PACKAGE (MAR) FLOW RATES   PERIOD      2   STEP       54
 -----------------------------------------------
   NUMBER   CELLID                    RATE      
 -----------------------------------------------
     1      (1,6,5)               46.666667     
     2      (1,6,6)               46.666667     
     3      (1,6,7)               46.666667     
     4      (1,10,5)              22.298459     
     5      (1,10,6)              22.298459     
     6      (1,10,7)              22.298459     
 -----------------------------------------------



1
  HEAD IN LAYER   1 AT END OF TIME STEP  54 IN STRESS PERIOD    2
  ---------------------------------------------------------------------------

            1           2           3           4           5           6           7           8           9          10
 ........................................................................................................................
   1   5.2546E-03  9.1154E-03  1.7165E-02  2.8576E-02  3.9499E-02  4.3981E-02  3.9641E-02  2.9045E-02  1.8479E-02  1.2386E-02
   2   9.7092E-03  1.7465E-02  3.4215E-02  5.9125E-02  8.4123E-02  9.4232E-02  8.4371E-02  5.9960E-02  3.6608E-02  2.3609E-02
   3   1.9273E-02  3.6167E-02  7.4356E-02  0.1350      0.2005      0.2258      0.2010      0.1366      7.9016E-02  4.8557E-02
   4   3.2765E-02  6.4527E-02  0.1410      0.2753      0.4400      0.4957      0.4407      0.2779      0.1487      8.5881E-02
   5   4.2989E-02  8.9348E-02  0.2122      0.4680      0.8757      0.9676      0.8766      0.4711      0.2221      0.1177    
   6   3.6384E-02  7.7635E-02  0.2040      0.5680       1.654       1.666       1.655      0.5707      0.2124      0.1014    
   7   8.1866E-03  2.9130E-03 -2.7217E-02 -0.1378     -0.4744      -1.584     -0.4740     -0.1365     -2.4543E-02  6.6175E-03
   8  -1.1811E-02 -5.1953E-02 -0.2045     -0.7103      -2.362      -8.628      -2.362     -0.7101     -0.2060     -6.2768E-02
   9  -9.2136E-04 -2.1343E-02 -9.9359E-02 -0.3313     -0.9029      -2.102     -0.9026     -0.3306     -9.8554E-02 -2.4251E-02
  10   2.1874E-02  3.7866E-02  7.9399E-02  0.1980      0.6418      0.5076      0.6424      0.2000      8.4861E-02  5.1207E-02
  11   3.0643E-02  5.7839E-02  0.1233      0.2461      0.4286      0.4469      0.4293      0.2486      0.1306      7.7377E-02
  12   2.5292E-02  4.6858E-02  9.5420E-02  0.1735      0.2606      0.2865      0.2613      0.1756      0.1015      6.2985E-02
  13   1.5646E-02  2.8175E-02  5.5208E-02  9.5473E-02  0.1360      0.1509      0.1363      9.6805E-02  5.9049E-02  3.8072E-02
  14   8.1723E-03  1.4295E-02  2.7108E-02  4.5339E-02  6.2795E-02  6.9703E-02  6.3011E-02  4.6060E-02  2.9142E-02  1.9405E-02
  15   4.5409E-03  7.7327E-03  1.4253E-02  2.3238E-02  3.1594E-02  3.4980E-02  3.1719E-02  2.3651E-02  1.5396E-02  1.0535E-02

 HEAD WILL BE SAVED ON UNIT 1043 AT END OF TIME STEP   54, STRESS PERIOD    2


  VOLUME BUDGET FOR ENTIRE MODEL AT END OF TIME STEP   54, STRESS PERIOD   2
  ---------------------------------------------------------------------------------------------------

     CUMULATIVE VOLUME      L**3       RATES FOR THIS TIME STEP      L**3/T          PACKAGE NAME    
     ------------------                 ------------------------                     ----------------

           IN:                                      IN:
           ---                                      ---
              STO-SS =          21.7639                STO-SS =       1.8923E-02     STORAGE                          
              STO-SY =       52621.4939                STO-SY =          39.2511     STORAGE                          
                 WEL =           0.0000                   WEL =           0.0000     WEL-1                            
                 API =      126958.4064                   API =         206.8954     MAR                              
                 CHD =       2.8247E-08                   CHD =           0.0000     CHD_0                            

            TOTAL IN =      179601.6643              TOTAL IN =         246.1654

          OUT:                                     OUT:
          ----                                     ----
              STO-SS =          27.3316                STO-SS =       2.0113E-02     STORAGE                          
              STO-SY =       52615.9262                STO-SY =          39.2499     STORAGE                          
                 WEL =      126958.4064                   WEL =         206.8954     WEL-1                            
                 API =           0.0000                   API =           0.0000     MAR                              
                 CHD =       3.0388E-08                   CHD =           0.0000     CHD_0                            

           TOTAL OUT =      179601.6643             TOTAL OUT =         246.1654

            IN - OUT =       7.9637E-07              IN - OUT =       5.9966E-09

 PERCENT DISCREPANCY =           0.00     PERCENT DISCREPANCY =           0.00




         TIME SUMMARY AT END OF TIME STEP   54 IN STRESS PERIOD    2
                    SECONDS     MINUTES      HOURS       DAYS        YEARS
                    -----------------------------------------------------------
   TIME STEP LENGTH 8.64000E+05  14400.      240.00      10.000     2.73785E-02
 STRESS PERIOD TIME 4.66560E+07 7.77600E+05  12960.      540.00      1.4784    
         TOTAL TIME 4.67424E+07 7.79040E+05  12984.      541.00      1.4812    


end timestep


start timestep kper="2" kstp="55" mode="normal"

 UBDSV1 SAVING           STO-SS ON UNIT   1042 AT TIME STEP     55, STRESS PERIOD      2
 UBDSV1 SAVING           STO-SY ON UNIT   1042 AT TIME STEP     55, STRESS PERIOD      2
 UBDSV1 SAVING     FLOW-JA-FACE ON UNIT   1042 AT TIME STEP     55, STRESS PERIOD      2
 UBDSV06 SAVING       DATA-SPDIS IN MODEL GWF              PACKAGE NPF             CONNECTED TO MODEL GWF              PACKAGE NPF              ON UNIT   1042 AT TIME STEP     55, STRESS PERIOD      2
 UBDSV06 SAVING              WEL IN MODEL GWF              PACKAGE GWF             CONNECTED TO MODEL GWF              PACKAGE WEL-1            ON UNIT   1042 AT TIME STEP     55, STRESS PERIOD      2
 UBDSV06 SAVING              API IN MODEL GWF              PACKAGE GWF             CONNECTED TO MODEL GWF              PACKAGE MAR              ON UNIT   1042 AT TIME STEP     55, STRESS PERIOD      2
 UBDSV06 SAVING              CHD IN MODEL GWF              PACKAGE GWF             CONNECTED TO MODEL GWF              PACKAGE CHD_0            ON UNIT   1042 AT TIME STEP     55, STRESS PERIOD      2

    CALCULATED INTERCELL FLOW FOR PERIOD 2 STEP 55
(1,1,1): (1,1,2) 4.080908E-02 (1,2,1) 4.690492E-02
(1,1,2): (1,1,1) -4.080908E-02 (1,1,3) 8.467043E-02 (1,2,2) 8.709497E-02
(1,1,3): (1,1,2) -8.467043E-02 (1,1,4) 0.119381 (1,2,3) 0.176599
(1,1,4): (1,1,3) -0.119381 (1,1,5) 0.113858 (1,2,4) 0.315300
(1,1,5): (1,1,4) -0.113858 (1,1,6) 4.670112E-02 (1,2,5) 0.460023
(1,1,6): (1,1,5) -4.670112E-02 (1,1,7) -4.511545E-02 (1,2,6) 0.518089
(1,1,7): (1,1,6) 4.511545E-02 (1,1,8) -0.110251 (1,2,7) 0.461192
(1,1,8): (1,1,7) 0.110251 (1,1,9) -0.110230 (1,2,8) 0.319257
(1,1,9): (1,1,8) 0.110230 (1,1,10) -6.373807E-02 (1,2,9) 0.188097
(1,1,10): (1,1,9) 6.373807E-02 (1,2,10) 0.117275
(1,2,1): (1,1,1) -4.690492E-02 (1,2,2) 8.099669E-02 (1,3,1) 9.984143E-02
(1,2,2): (1,1,2) -8.709497E-02 (1,2,1) -8.099669E-02 (1,2,3) 0.174173 (1,3,2) 0.193585
(1,2,3): (1,1,3) -0.176599 (1,2,2) -0.174173 (1,2,4) 0.258003 (1,3,3) 0.413611
(1,2,4): (1,1,4) -0.315300 (1,2,3) -0.258003 (1,2,5) 0.258296 (1,3,4) 0.782410
(1,2,5): (1,1,5) -0.460023 (1,2,4) -0.258296 (1,2,6) 0.104533 (1,3,5) 1.20306
(1,2,6): (1,1,6) -0.518089 (1,2,5) -0.104533 (1,2,7) -0.101782 (1,3,6) 1.36243
(1,2,7): (1,1,7) -0.461192 (1,2,6) 0.101782 (1,2,8) -0.251896 (1,3,7) 1.20546
(1,2,8): (1,1,8) -0.319257 (1,2,7) 0.251896 (1,2,9) -0.241289 (1,3,8) 0.790569
(1,2,9): (1,1,9) -0.188097 (1,2,8) 0.241289 (1,2,10) -0.134522 (1,3,9) 0.437741
(1,2,10): (1,1,10) -0.117275 (1,2,9) 0.134522 (1,3,10) 0.258884
(1,3,1): (1,2,1) -9.984143E-02 (1,3,2) 0.174723 (1,4,1) 0.139208
(1,3,2): (1,2,2) -0.193585 (1,3,1) -0.174723 (1,3,3) 0.394157 (1,4,2) 0.290716
(1,3,3): (1,2,3) -0.413611 (1,3,2) -0.394157 (1,3,4) 0.626245 (1,4,3) 0.683463
(1,3,4): (1,2,4) -0.782410 (1,3,3) -0.626245 (1,3,5) 0.676849 (1,4,4) 1.45098
(1,3,5): (1,2,5) -1.20306 (1,3,4) -0.676849 (1,3,6) 0.262255 (1,4,5) 2.51087
(1,3,6): (1,2,6) -1.36243 (1,3,5) -0.262255 (1,3,7) -0.257121 (1,4,6) 2.84417
(1,3,7): (1,2,7) -1.20546 (1,3,6) 0.257121 (1,3,8) -0.664660 (1,4,7) 2.51406
(1,3,8): (1,2,8) -0.790569 (1,3,7) 0.664660 (1,3,9) -0.593446 (1,4,8) 1.46177
(1,3,9): (1,2,9) -0.437741 (1,3,8) 0.593446 (1,3,10) -0.313161 (1,4,9) 0.716203
(1,3,10): (1,2,10) -0.258884 (1,3,9) 0.313161 (1,4,10) 0.383840
(1,4,1): (1,3,1) -0.139208 (1,4,2) 0.326284 (1,5,1) 0.103130
(1,4,2): (1,3,2) -0.290716 (1,4,1) -0.326284 (1,4,3) 0.787298 (1,5,2) 0.250126
(1,4,3): (1,3,3) -0.683463 (1,4,2) -0.787298 (1,4,4) 1.39334 (1,5,3) 0.724770
(1,4,4): (1,3,4) -1.45098 (1,4,3) -1.39334 (1,4,5) 1.72932 (1,5,4) 2.01116
(1,4,5): (1,3,5) -2.51087 (1,4,4) -1.72932 (1,4,6) 0.589007 (1,5,5) 4.72967
(1,4,6): (1,3,6) -2.84417 (1,4,5) -0.589007 (1,4,7) -0.580725 (1,5,6) 5.16642
(1,4,7): (1,3,7) -2.51406 (1,4,6) 0.580725 (1,4,8) -1.70936 (1,5,7) 4.73196
(1,4,8): (1,3,8) -1.46177 (1,4,7) 1.70936 (1,4,9) -1.33815 (1,5,8) 2.01843
(1,4,9): (1,3,9) -0.716203 (1,4,8) 1.33815 (1,4,10) -0.645296 (1,5,9) 0.747567
(1,4,10): (1,3,10) -0.383840 (1,4,9) 0.645296 (1,5,10) 0.321216
(1,5,1): (1,4,1) -0.103130 (1,5,2) 0.473602 (1,6,1) -7.143509E-02
(1,5,2): (1,4,2) -0.250126 (1,5,1) -0.473602 (1,5,3) 1.26438 (1,6,2) -0.127237
(1,5,3): (1,4,3) -0.724770 (1,5,2) -1.26438 (1,5,4) 2.68755 (1,6,3) -0.100062
(1,5,4): (1,4,4) -2.01116 (1,5,3) -2.68755 (1,5,5) 4.44141 (1,6,4) 1.03164
(1,5,5): (1,4,5) -4.72967 (1,5,4) -4.44141 (1,5,6) 1.01207 (1,6,5) 9.03399
(1,5,6): (1,4,6) -5.16642 (1,5,5) -1.01207 (1,5,7) -1.00153 (1,6,6) 8.11120
(1,5,7): (1,4,7) -4.73196 (1,5,6) 1.00153 (1,5,8) -4.41585 (1,6,7) 9.03283
(1,5,8): (1,4,8) -2.01843 (1,5,7) 4.41585 (1,5,9) -2.61584 (1,6,8) 1.02634
(1,5,9): (1,4,9) -0.747567 (1,5,8) 2.61584 (1,5,10) -1.07296 (1,6,9) -0.117349
(1,5,10): (1,4,10) -0.321216 (1,5,9) 1.07296 (1,6,10) -0.176429
(1,6,1): (1,5,1) 7.143509E-02 (1,6,2) 0.417611 (1,7,1) -0.291495
(1,6,2): (1,5,2) 0.127237 (1,6,1) -0.417611 (1,6,3) 1.29188 (1,7,2) -0.767195
(1,6,3): (1,5,3) 0.100062 (1,6,2) -1.29188 (1,6,4) 3.84777 (1,7,3) -2.38442
(1,6,4): (1,5,4) -1.03164 (1,6,3) -3.84777 (1,6,5) 12.6542 (1,7,4) -7.49557
(1,6,5): (1,5,5) -9.03399 (1,6,4) -12.6542 (1,6,6) 0.143847 (1,7,5) -24.8447
(1,6,6): (1,5,6) -8.11120 (1,6,5) -0.143847 (1,6,7) -0.134431 (1,7,6) -37.9484
(1,6,7): (1,5,7) -9.03283 (1,6,6) 0.134431 (1,6,8) -12.6316 (1,7,7) -24.8502
(1,6,8): (1,5,8) -1.02634 (1,6,7) 12.6316 (1,6,9) -3.78775 (1,7,8) -7.51337
(1,6,9): (1,5,9) 0.117349 (1,6,8) 3.78775 (1,6,10) -1.13260 (1,7,9) -2.44616
(1,6,10): (1,5,10) 0.176429 (1,6,9) 1.13260 (1,7,10) -0.977315
(1,7,1): (1,6,1) 0.291495 (1,7,2) -5.648854E-02 (1,8,1) -0.206275
(1,7,2): (1,6,2) 0.767195 (1,7,1) 5.648854E-02 (1,7,3) -0.309438 (1,8,2) -0.559654
(1,7,3): (1,6,3) 2.38442 (1,7,2) 0.309438 (1,7,4) -1.11169 (1,8,3) -1.78868
(1,7,4): (1,6,4) 7.49557 (1,7,3) 1.11169 (1,7,5) -3.32053 (1,8,4) -5.67789
(1,7,5): (1,6,5) 24.8447 (1,7,4) 3.32053 (1,7,6) -10.5569 (1,8,5) -18.0174
(1,7,6): (1,6,6) 37.9484 (1,7,5) 10.5569 (1,7,7) 10.5621 (1,8,6) -59.2794
(1,7,7): (1,6,7) 24.8502 (1,7,6) -10.5621 (1,7,8) 3.32924 (1,8,7) -18.0210
(1,7,8): (1,6,8) 7.51337 (1,7,7) -3.32924 (1,7,9) 1.12618 (1,8,8) -5.68992
(1,7,9): (1,6,9) 2.44616 (1,7,8) -1.12618 (1,7,10) 0.318897 (1,8,9) -1.83141
(1,7,10): (1,6,10) 0.977315 (1,7,9) -0.318897 (1,8,10) -0.709026
(1,8,1): (1,7,1) 0.206275 (1,8,2) -0.409338 (1,9,1) 0.109090
(1,8,2): (1,7,2) 0.559654 (1,8,1) 0.409338 (1,8,3) -1.53538 (1,9,2) 0.304035
(1,8,3): (1,7,3) 1.78868 (1,8,2) 1.53538 (1,8,4) -4.97398 (1,9,3) 1.03422
(1,8,4): (1,7,4) 5.67789 (1,8,3) 4.97398 (1,8,5) -15.3454 (1,9,4) 3.64140
(1,8,5): (1,7,5) 18.0174 (1,8,4) 15.3454 (1,8,6) -47.7825 (1,9,5) 13.2177
(1,8,6): (1,7,6) 59.2794 (1,8,5) 47.7825 (1,8,7) 47.7854 (1,9,6) 51.3969
(1,8,7): (1,7,7) 18.0210 (1,8,6) -47.7854 (1,8,8) 15.3455 (1,9,7) 13.2195
(1,8,8): (1,7,8) 5.68992 (1,8,7) -15.3455 (1,8,9) 4.95687 (1,9,8) 3.64747
(1,8,9): (1,7,9) 1.83141 (1,8,8) -4.95687 (1,8,10) 1.43688 (1,9,9) 1.05635
(1,8,10): (1,7,10) 0.709026 (1,8,9) -1.43688 (1,9,10) 0.382688
(1,9,1): (1,8,1) -0.109090 (1,9,2) -0.214187 (1,10,1) 0.233578
(1,9,2): (1,8,2) -0.304035 (1,9,1) 0.214187 (1,9,3) -0.801500 (1,10,2) 0.601517
(1,9,3): (1,8,3) -1.03422 (1,9,2) 0.801500 (1,9,4) -2.33112 (1,10,3) 1.81032
(1,9,4): (1,8,4) -3.64140 (1,9,3) 2.33112 (1,9,5) -5.55558 (1,10,4) 5.39943
(1,9,5): (1,8,5) -13.2177 (1,9,4) 5.55558 (1,9,6) -10.8965 (1,10,5) 16.4012
(1,9,6): (1,8,6) -51.3969 (1,9,5) 10.8965 (1,9,7) 10.9001 (1,10,6) 27.3503
(1,9,7): (1,8,7) -13.2195 (1,9,6) -10.9001 (1,9,8) 5.56019 (1,10,7) 16.4050
(1,9,8): (1,8,8) -3.64747 (1,9,7) -5.56019 (1,9,9) 2.33088 (1,10,8) 5.41332
(1,9,9): (1,8,9) -1.05635 (1,9,8) -2.33088 (1,9,10) 0.760634 (1,10,9) 1.85962
(1,9,10): (1,8,10) -0.382688 (1,9,9) -0.760634 (1,10,10) 0.768621
(1,10,1): (1,9,1) -0.233578 (1,10,2) 0.152572 (1,11,1) 9.362408E-02
(1,10,2): (1,9,2) -0.601517 (1,10,1) -0.152572 (1,10,3) 0.396964 (1,11,2) 0.211500
(1,10,3): (1,9,3) -1.81032 (1,10,2) -0.396964 (1,10,4) 1.16809 (1,11,3) 0.465706
(1,10,4): (1,9,4) -5.39943 (1,10,3) -1.16809 (1,10,5) 4.65737 (1,11,4) 0.531642
(1,10,5): (1,9,5) -16.4012 (1,10,4) -4.65737 (1,10,6) -1.44374 (1,11,5) -2.19715
(1,10,6): (1,9,6) -27.3503 (1,10,5) 1.44374 (1,10,7) 1.45043 (1,11,6) -0.562909
(1,10,7): (1,9,7) -16.4050 (1,10,6) -1.45043 (1,10,8) -4.64261 (1,11,7) -2.19572
(1,10,8): (1,9,8) -5.41332 (1,10,7) 4.64261 (1,10,9) -1.13271 (1,11,8) 0.537541
(1,10,9): (1,9,9) -1.85962 (1,10,8) 1.13271 (1,10,10) -0.319692 (1,11,9) 0.486478
(1,10,10): (1,9,10) -0.768621 (1,10,9) 0.319692 (1,11,10) 0.278048
(1,11,1): (1,10,1) -9.362408E-02 (1,11,2) 0.270517 (1,12,1) -5.138796E-02
(1,11,2): (1,10,2) -0.211500 (1,11,1) -0.270517 (1,11,3) 0.651629 (1,12,2) -0.104269
(1,11,3): (1,10,3) -0.465706 (1,11,2) -0.651629 (1,11,4) 1.23443 (1,12,3) -0.266284
(1,11,4): (1,10,4) -0.531642 (1,11,3) -1.23443 (1,11,5) 1.87142 (1,12,4) -0.711406
(1,11,5): (1,10,5) 2.19715 (1,11,4) -1.87142 (1,11,6) 0.179946 (1,12,5) -1.69752
(1,11,6): (1,10,6) 0.562909 (1,11,5) -0.179946 (1,11,7) -0.171932 (1,12,6) -1.61522
(1,11,7): (1,10,7) 2.19572 (1,11,6) 0.171932 (1,11,8) -1.85247 (1,12,7) -1.69888
(1,11,8): (1,10,8) -0.537541 (1,11,7) 1.85247 (1,11,9) -1.18406 (1,12,8) -0.715686
(1,11,9): (1,10,9) -0.486478 (1,11,8) 1.18406 (1,11,10) -0.528206 (1,12,9) -0.278469
(1,11,10): (1,10,10) -0.278048 (1,11,9) 0.528206 (1,12,10) -0.137011
(1,12,1): (1,11,1) 5.138796E-02 (1,12,2) 0.217549 (1,13,1) -9.784763E-02
(1,12,2): (1,11,2) 0.104269 (1,12,1) -0.217549 (1,12,3) 0.489006 (1,13,2) -0.187507
(1,12,3): (1,11,3) 0.266284 (1,12,2) -0.489006 (1,12,4) 0.787106 (1,13,3) -0.401592
(1,12,4): (1,11,4) 0.711406 (1,12,3) -0.787106 (1,12,5) 0.883747 (1,13,4) -0.780806
(1,12,5): (1,11,5) 1.69752 (1,12,4) -0.883747 (1,12,6) 0.261128 (1,13,5) -1.25670
(1,12,6): (1,11,6) 1.61522 (1,12,5) -0.261128 (1,12,7) -0.254448 (1,13,6) -1.36770
(1,12,7): (1,11,7) 1.69888 (1,12,6) 0.254448 (1,12,8) -0.867913 (1,13,7) -1.25909
(1,12,8): (1,11,8) 0.715686 (1,12,7) 0.867913 (1,12,9) -0.744901 (1,13,8) -0.788875
(1,12,9): (1,11,9) 0.278469 (1,12,8) 0.744901 (1,12,10) -0.386405 (1,13,9) -0.425243
(1,12,10): (1,11,10) 0.137011 (1,12,9) 0.386405 (1,13,10) -0.250779
(1,13,1): (1,12,1) 9.784763E-02 (1,13,2) 0.127864 (1,14,1) -7.715962E-02
(1,13,2): (1,12,2) 0.187507 (1,13,1) -0.127864 (1,13,3) 0.274738 (1,14,2) -0.141715
(1,13,3): (1,12,3) 0.401592 (1,13,2) -0.274738 (1,13,4) 0.407870 (1,14,3) -0.284702
(1,13,4): (1,12,4) 0.780806 (1,13,3) -0.407870 (1,13,5) 0.409512 (1,14,4) -0.506353
(1,13,5): (1,12,5) 1.25670 (1,13,4) -0.409512 (1,13,6) 0.151260 (1,14,5) -0.738810
(1,13,6): (1,12,6) 1.36770 (1,13,5) -0.151260 (1,13,7) -0.146951 (1,14,6) -0.820262
(1,13,7): (1,12,7) 1.25909 (1,13,6) 0.146951 (1,13,8) -0.399419 (1,14,7) -0.740752
(1,13,8): (1,12,8) 0.788875 (1,13,7) 0.399419 (1,13,9) -0.381422 (1,14,8) -0.512913
(1,13,9): (1,12,9) 0.425243 (1,13,8) 0.381422 (1,13,10) -0.212007 (1,14,9) -0.303661
(1,13,10): (1,12,10) 0.250779 (1,13,9) 0.212007 (1,14,10) -0.191061
(1,14,1): (1,13,1) 7.715962E-02 (1,14,2) 6.331725E-02 (1,15,1) -3.790486E-02
(1,14,2): (1,13,2) 0.141715 (1,14,1) -6.331725E-02 (1,14,3) 0.131766 (1,15,2) -6.773489E-02
(1,14,3): (1,13,3) 0.284702 (1,14,2) -0.131766 (1,14,4) 0.186431 (1,15,3) -0.131476
(1,14,4): (1,13,4) 0.506353 (1,14,3) -0.186431 (1,14,5) 0.177793 (1,15,4) -0.224808
(1,14,5): (1,13,5) 0.738810 (1,14,4) -0.177793 (1,14,6) 7.032931E-02 (1,15,5) -0.316522
(1,14,6): (1,13,6) 0.820262 (1,14,5) -7.032931E-02 (1,14,7) -6.795388E-02 (1,15,6) -0.352039
(1,14,7): (1,13,7) 0.740752 (1,14,6) 6.795388E-02 (1,14,8) -0.172329 (1,15,7) -0.317503
(1,14,8): (1,13,8) 0.512913 (1,14,7) 0.172329 (1,14,9) -0.172439 (1,15,8) -0.228104
(1,14,9): (1,13,9) 0.303661 (1,14,8) 0.172439 (1,14,10) -9.950788E-02 (1,15,9) -0.140880
(1,14,10): (1,13,10) 0.191061 (1,14,9) 9.950788E-02 (1,15,10) -9.172367E-02
(1,15,1): (1,14,1) 3.790486E-02 (1,15,2) 3.348854E-02
(1,15,2): (1,14,2) 6.773489E-02 (1,15,1) -3.348854E-02 (1,15,3) 6.802423E-02
(1,15,3): (1,14,3) 0.131476 (1,15,2) -6.802423E-02 (1,15,4) 9.313494E-02
(1,15,4): (1,14,4) 0.224808 (1,15,3) -9.313494E-02 (1,15,5) 8.620442E-02
(1,15,5): (1,14,5) 0.316522 (1,15,4) -8.620442E-02 (1,15,6) 3.491043E-02
(1,15,6): (1,14,6) 0.352039 (1,15,5) -3.491043E-02 (1,15,7) -3.351453E-02
(1,15,7): (1,14,7) 0.317503 (1,15,6) 3.351453E-02 (1,15,8) -8.305737E-02
(1,15,8): (1,14,8) 0.228104 (1,15,7) 8.305737E-02 (1,15,9) -8.526308E-02
(1,15,9): (1,14,9) 0.140880 (1,15,8) 8.526308E-02 (1,15,10) -5.037205E-02
(1,15,10): (1,14,10) 9.172367E-02 (1,15,9) 5.037205E-02

 WEL PACKAGE (WEL-1) FLOW RATES   PERIOD      2   STEP       55
 ----------------------------------------------------------------------------------------
   NUMBER   CELLID                    RATE       NAME                                    
 ----------------------------------------------------------------------------------------
     1      (1,8,6)              -206.59192      WEL                                     
 ----------------------------------------------------------------------------------------




 API PACKAGE (MAR) FLOW RATES   PERIOD      2   STEP       55
 -----------------------------------------------
   NUMBER   CELLID                    RATE      
 -----------------------------------------------
     1      (1,6,5)               46.666667     
     2      (1,6,6)               46.666667     
     3      (1,6,7)               46.666667     
     4      (1,10,5)              22.197306     
     5      (1,10,6)              22.197306     
     6      (1,10,7)              22.197306     
 -----------------------------------------------



1
  HEAD IN LAYER   1 AT END OF TIME STEP  55 IN STRESS PERIOD    2
  ---------------------------------------------------------------------------

            1           2           3           4           5           6           7           8           9          10
 ........................................................................................................................
   1   5.6929E-03  9.7698E-03  1.8221E-02  3.0124E-02  4.1463E-02  4.6111E-02  4.1620E-02  3.0641E-02  1.9652E-02  1.3290E-02
   2   1.0379E-02  1.8463E-02  3.5818E-02  6.1461E-02  8.7068E-02  9.7420E-02  8.7340E-02  6.2369E-02  3.8389E-02  2.4989E-02
   3   2.0342E-02  3.7749E-02  7.6864E-02  0.1386      0.2050      0.2306      0.2055      0.1403      8.1808E-02  5.0746E-02
   4   3.4216E-02  6.6628E-02  0.1442      0.2798      0.4453      0.5014      0.4461      0.2825      0.1524      8.8793E-02
   5   4.4483E-02  9.1414E-02  0.2152      0.4718      0.8801      0.9723      0.8810      0.4752      0.2255      0.1205    
   6   3.7371E-02  7.8806E-02  0.2054      0.5694       1.655       1.667       1.656      0.5723      0.2140      0.1031    
   7   8.3302E-03  2.6861E-03 -2.8249E-02 -0.1397     -0.4765      -1.585     -0.4760     -0.1384     -2.5505E-02  6.3646E-03
   8  -1.2280E-02 -5.3264E-02 -0.2076     -0.7156      -2.368      -8.630      -2.368     -0.7154     -0.2091     -6.4493E-02
   9  -1.3696E-03 -2.2791E-02 -0.1031     -0.3387     -0.9137      -2.113     -0.9133     -0.3379     -0.1024     -2.6124E-02
  10   2.1937E-02  3.7138E-02  7.6533E-02  0.1912      0.6293      0.4935      0.6299      0.1932      8.2062E-02  5.0353E-02
  11   3.1270E-02  5.8165E-02  0.1225      0.2431      0.4226      0.4398      0.4234      0.2457      0.1301      7.7943E-02
  12   2.6147E-02  4.7799E-02  9.6233E-02  0.1736      0.2597      0.2851      0.2604      0.1758      0.1026      6.4348E-02
  13   1.6388E-02  2.9137E-02  5.6457E-02  9.6853E-02  0.1372      0.1521      0.1377      9.8274E-02  6.0503E-02  3.9430E-02
  14   8.6849E-03  1.5007E-02  2.8147E-02  4.6703E-02  6.4369E-02  7.1352E-02  6.4605E-02  4.7482E-02  3.0320E-02  2.0399E-02
  15   4.8977E-03  8.2438E-03  1.5036E-02  2.4327E-02  3.2919E-02  3.6397E-02  3.3058E-02  2.4780E-02  1.6275E-02  1.1245E-02

 HEAD WILL BE SAVED ON UNIT 1043 AT END OF TIME STEP   55, STRESS PERIOD    2


  VOLUME BUDGET FOR ENTIRE MODEL AT END OF TIME STEP   55, STRESS PERIOD   2
  ---------------------------------------------------------------------------------------------------

     CUMULATIVE VOLUME      L**3       RATES FOR THIS TIME STEP      L**3/T          PACKAGE NAME    
     ------------------                 ------------------------                     ----------------

           IN:                                      IN:
           ---                                      ---
              STO-SS =          21.9506                STO-SS =       1.8666E-02     STORAGE                          
              STO-SY =       53008.5693                STO-SY =          38.7075     STORAGE                          
                 WEL =           0.0000                   WEL =           0.0000     WEL-1                            
                 API =      129024.3256                   API =         206.5919     MAR                              
                 CHD =       2.8247E-08                   CHD =           0.0000     CHD_0                            

            TOTAL IN =      182054.8455              TOTAL IN =         245.3181

          OUT:                                     OUT:
          ----                                     ----
              STO-SS =          27.5300                STO-SS =       1.9835E-02     STORAGE                          
              STO-SY =       53002.9899                STO-SY =          38.7064     STORAGE                          
                 WEL =      129024.3256                   WEL =         206.5919     WEL-1                            
                 API =           0.0000                   API =           0.0000     MAR                              
                 CHD =       3.0388E-08                   CHD =           0.0000     CHD_0                            

           TOTAL OUT =      182054.8455             TOTAL OUT =         245.3181

            IN - OUT =       8.5917E-07              IN - OUT =       6.2835E-09

 PERCENT DISCREPANCY =           0.00     PERCENT DISCREPANCY =           0.00




         TIME SUMMARY AT END OF TIME STEP   55 IN STRESS PERIOD    2
                    SECONDS     MINUTES      HOURS       DAYS        YEARS
                    -----------------------------------------------------------
   TIME STEP LENGTH 8.64000E+05  14400.      240.00      10.000     2.73785E-02
 STRESS PERIOD TIME 4.75200E+07 7.92000E+05  13200.      550.00      1.5058    
         TOTAL TIME 4.76064E+07 7.93440E+05  13224.      551.00      1.5086    


end timestep


start timestep kper="2" kstp="56" mode="normal"

 UBDSV1 SAVING           STO-SS ON UNIT   1042 AT TIME STEP     56, STRESS PERIOD      2
 UBDSV1 SAVING           STO-SY ON UNIT   1042 AT TIME STEP     56, STRESS PERIOD      2
 UBDSV1 SAVING     FLOW-JA-FACE ON UNIT   1042 AT TIME STEP     56, STRESS PERIOD      2
 UBDSV06 SAVING       DATA-SPDIS IN MODEL GWF              PACKAGE NPF             CONNECTED TO MODEL GWF              PACKAGE NPF              ON UNIT   1042 AT TIME STEP     56, STRESS PERIOD      2
 UBDSV06 SAVING              WEL IN MODEL GWF              PACKAGE GWF             CONNECTED TO MODEL GWF              PACKAGE WEL-1            ON UNIT   1042 AT TIME STEP     56, STRESS PERIOD      2
 UBDSV06 SAVING              API IN MODEL GWF              PACKAGE GWF             CONNECTED TO MODEL GWF              PACKAGE MAR              ON UNIT   1042 AT TIME STEP     56, STRESS PERIOD      2
 UBDSV06 SAVING              CHD IN MODEL GWF              PACKAGE GWF             CONNECTED TO MODEL GWF              PACKAGE CHD_0            ON UNIT   1042 AT TIME STEP     56, STRESS PERIOD      2

    CALCULATED INTERCELL FLOW FOR PERIOD 2 STEP 56
(1,1,1): (1,1,2) 4.301403E-02 (1,2,1) 4.924277E-02
(1,1,2): (1,1,1) -4.301403E-02 (1,1,3) 8.875466E-02 (1,2,2) 9.053583E-02
(1,1,3): (1,1,2) -8.875466E-02 (1,1,4) 0.124371 (1,2,3) 0.182045
(1,1,4): (1,1,3) -0.124371 (1,1,5) 0.118062 (1,2,4) 0.323125
(1,1,5): (1,1,4) -0.118062 (1,1,6) 4.839275E-02 (1,2,5) 0.469793
(1,1,6): (1,1,5) -4.839275E-02 (1,1,7) -4.663376E-02 (1,2,6) 0.528637
(1,1,7): (1,1,6) 4.663376E-02 (1,1,8) -0.114118 (1,2,7) 0.471053
(1,1,8): (1,1,7) 0.114118 (1,1,9) -0.114496 (1,2,8) 0.327345
(1,1,9): (1,1,8) 0.114496 (1,1,10) -6.643733E-02 (1,2,9) 0.194174
(1,1,10): (1,1,9) 6.643733E-02 (1,2,10) 0.122049
(1,2,1): (1,1,1) -4.924277E-02 (1,2,2) 8.430454E-02 (1,3,1) 0.103859
(1,2,2): (1,1,2) -9.053583E-02 (1,2,1) -8.430454E-02 (1,2,3) 0.180262 (1,3,2) 0.199395
(1,2,3): (1,1,3) -0.182045 (1,2,2) -0.180262 (1,2,4) 0.265370 (1,3,3) 0.422589
(1,2,4): (1,1,4) -0.323125 (1,2,3) -0.265370 (1,2,5) 0.264437 (1,3,4) 0.794987
(1,2,5): (1,1,5) -0.469793 (1,2,4) -0.264437 (1,2,6) 0.106995 (1,3,5) 1.21845
(1,2,6): (1,1,6) -0.528637 (1,2,5) -0.106995 (1,2,7) -0.103980 (1,3,6) 1.37894
(1,2,7): (1,1,7) -0.471053 (1,2,6) 0.103980 (1,2,8) -0.257526 (1,3,7) 1.22101
(1,2,8): (1,1,8) -0.327345 (1,2,7) 0.257526 (1,2,9) -0.247562 (1,3,8) 0.803609
(1,2,9): (1,1,9) -0.194174 (1,2,8) 0.247562 (1,2,10) -0.138522 (1,3,9) 0.447814
(1,2,10): (1,1,10) -0.122049 (1,2,9) 0.138522 (1,3,10) 0.266964
(1,3,1): (1,2,1) -0.103859 (1,3,2) 0.179822 (1,4,1) 0.142954
(1,3,2): (1,2,2) -0.199395 (1,3,1) -0.179822 (1,3,3) 0.403414 (1,4,2) 0.295797
(1,3,3): (1,2,3) -0.422589 (1,3,2) -0.403414 (1,3,4) 0.637201 (1,4,3) 0.690640
(1,3,4): (1,2,4) -0.794987 (1,3,3) -0.637201 (1,3,5) 0.685764 (1,4,4) 1.46006
(1,3,5): (1,2,5) -1.21845 (1,3,4) -0.685764 (1,3,6) 0.265813 (1,4,5) 2.52104
(1,3,6): (1,2,6) -1.37894 (1,3,5) -0.265813 (1,3,7) -0.260256 (1,4,6) 2.85485
(1,3,7): (1,2,7) -1.22101 (1,3,6) 0.260256 (1,3,8) -0.672761 (1,4,7) 2.52440
(1,3,8): (1,2,8) -0.803609 (1,3,7) 0.672761 (1,3,9) -0.602668 (1,4,8) 1.47131
(1,3,9): (1,2,9) -0.447814 (1,3,8) 0.602668 (1,3,10) -0.319144 (1,4,9) 0.724420
(1,3,10): (1,2,10) -0.266964 (1,3,9) 0.319144 (1,4,10) 0.390957
(1,4,1): (1,3,1) -0.142954 (1,4,2) 0.332720 (1,5,1) 0.103444
(1,4,2): (1,3,2) -0.295797 (1,4,1) -0.332720 (1,4,3) 0.798670 (1,5,2) 0.249614
(1,4,3): (1,3,3) -0.690640 (1,4,2) -0.798670 (1,4,4) 1.40623 (1,5,3) 0.722203
(1,4,4): (1,3,4) -1.46006 (1,4,3) -1.40623 (1,4,5) 1.73932 (1,5,4) 2.00527
(1,4,5): (1,3,5) -2.52104 (1,4,4) -1.73932 (1,4,6) 0.593061 (1,5,5) 4.72036
(1,4,6): (1,3,6) -2.85485 (1,4,5) -0.593061 (1,4,7) -0.584186 (1,5,6) 5.15636
(1,4,7): (1,3,7) -2.52440 (1,4,6) 0.584186 (1,4,8) -1.71824 (1,5,7) 4.72271
(1,4,8): (1,3,8) -1.47131 (1,4,7) 1.71824 (1,4,9) -1.34871 (1,5,8) 2.01266
(1,4,9): (1,3,9) -0.724420 (1,4,8) 1.34871 (1,4,10) -0.652376 (1,5,9) 0.745133
(1,4,10): (1,3,10) -0.390957 (1,4,9) 0.652376 (1,5,10) 0.320634
(1,5,1): (1,4,1) -0.103444 (1,5,2) 0.479219 (1,6,1) -7.662488E-02
(1,5,2): (1,4,2) -0.249614 (1,5,1) -0.479219 (1,5,3) 1.27374 (1,6,2) -0.136297
(1,5,3): (1,4,3) -0.722203 (1,5,2) -1.27374 (1,5,4) 2.69728 (1,6,3) -0.116527
(1,5,4): (1,4,4) -2.00527 (1,5,3) -2.69728 (1,5,5) 4.44836 (1,6,4) 1.00630
(1,5,5): (1,4,5) -4.72036 (1,5,4) -4.44836 (1,5,6) 1.01546 (1,6,5) 9.00138
(1,5,6): (1,4,6) -5.15636 (1,5,5) -1.01546 (1,5,7) -1.00426 (1,6,6) 8.07840
(1,5,7): (1,4,7) -4.72271 (1,5,6) 1.00426 (1,5,8) -4.42160 (1,6,7) 9.00009
(1,5,8): (1,4,8) -2.01266 (1,5,7) 4.42160 (1,5,9) -2.62319 (1,6,8) 1.00053
(1,5,9): (1,4,9) -0.745133 (1,5,8) 2.62319 (1,5,10) -1.07822 (1,6,9) -0.135139
(1,5,10): (1,4,10) -0.320634 (1,5,9) 1.07822 (1,6,10) -0.188826
(1,6,1): (1,5,1) 7.662488E-02 (1,6,2) 0.419347 (1,7,1) -0.299983
(1,6,2): (1,5,2) 0.136297 (1,6,1) -0.419347 (1,6,3) 1.29375 (1,7,2) -0.781178
(1,6,3): (1,5,3) 0.116527 (1,6,2) -1.29375 (1,6,4) 3.84864 (1,7,3) -2.40849
(1,6,4): (1,5,4) -1.00630 (1,6,3) -3.84864 (1,6,5) 12.6557 (1,7,4) -7.53076
(1,6,5): (1,5,5) -9.00138 (1,6,4) -12.6557 (1,6,6) 0.146805 (1,7,5) -24.8860
(1,6,6): (1,5,6) -8.07840 (1,6,5) -0.146805 (1,6,7) -0.136861 (1,7,6) -37.9838
(1,6,7): (1,5,7) -9.00009 (1,6,6) 0.136861 (1,6,8) -12.6322 (1,7,7) -24.8918
(1,6,8): (1,5,8) -1.00053 (1,6,7) 12.6322 (1,6,9) -3.78710 (1,7,8) -7.54938
(1,6,9): (1,5,9) 0.135139 (1,6,8) 3.78710 (1,6,10) -1.13240 (1,7,9) -2.47242
(1,6,10): (1,5,10) 0.188826 (1,6,9) 1.13240 (1,7,10) -0.996537
(1,7,1): (1,6,1) 0.299983 (1,7,2) -6.017496E-02 (1,8,1) -0.212448
(1,7,2): (1,6,2) 0.781178 (1,7,1) 6.017496E-02 (1,7,3) -0.317267 (1,8,2) -0.570414
(1,7,3): (1,6,3) 2.40849 (1,7,2) 0.317267 (1,7,4) -1.12029 (1,8,3) -1.80855
(1,7,4): (1,6,4) 7.53076 (1,7,3) 1.12029 (1,7,5) -3.32047 (1,8,4) -5.70859
(1,7,5): (1,6,5) 24.8860 (1,7,4) 3.32047 (1,7,6) -10.5456 (1,8,5) -18.0505
(1,7,6): (1,6,6) 37.9838 (1,7,5) 10.5456 (1,7,7) 10.5511 (1,8,6) -59.2783
(1,7,7): (1,6,7) 24.8918 (1,7,6) -10.5511 (1,7,8) 3.32949 (1,8,7) -18.0542
(1,7,8): (1,6,8) 7.54938 (1,7,7) -3.32949 (1,7,9) 1.13488 (1,8,8) -5.72119
(1,7,9): (1,6,9) 2.47242 (1,7,8) -1.13488 (1,7,10) 0.325725 (1,8,9) -1.85282
(1,7,10): (1,6,10) 0.996537 (1,7,9) -0.325725 (1,8,10) -0.723662
(1,8,1): (1,7,1) 0.212448 (1,8,2) -0.417596 (1,9,1) 0.109150
(1,8,2): (1,7,2) 0.570414 (1,8,1) 0.417596 (1,8,3) -1.55225 (1,9,2) 0.302392
(1,8,3): (1,7,3) 1.80855 (1,8,2) 1.55225 (1,8,4) -4.99289 (1,9,3) 1.02674
(1,8,4): (1,7,4) 5.70859 (1,8,3) 4.99289 (1,8,5) -15.3434 (1,9,4) 3.61867
(1,8,5): (1,7,5) 18.0505 (1,8,4) 15.3434 (1,8,6) -47.7147 (1,9,5) 13.1598
(1,8,6): (1,7,6) 59.2783 (1,8,5) 47.7147 (1,8,7) 47.7178 (1,9,6) 51.2527
(1,8,7): (1,7,7) 18.0542 (1,8,6) -47.7178 (1,8,8) 15.3433 (1,9,7) 13.1617
(1,8,8): (1,7,8) 5.72119 (1,8,7) -15.3433 (1,8,9) 4.97485 (1,9,8) 3.62483
(1,8,9): (1,7,9) 1.85282 (1,8,8) -4.97485 (1,8,10) 1.45037 (1,9,9) 1.04897
(1,8,10): (1,7,10) 0.723662 (1,8,9) -1.45037 (1,9,10) 0.380819
(1,9,1): (1,8,1) -0.109150 (1,9,2) -0.224131 (1,10,1) 0.238584
(1,9,2): (1,8,2) -0.302392 (1,9,1) 0.224131 (1,9,3) -0.824056 (1,10,2) 0.608415
(1,9,3): (1,8,3) -1.02674 (1,9,2) 0.824056 (1,9,4) -2.36432 (1,10,3) 1.81830
(1,9,4): (1,8,4) -3.61867 (1,9,3) 2.36432 (1,9,5) -5.58340 (1,10,4) 5.39965
(1,9,5): (1,8,5) -13.1598 (1,9,4) 5.58340 (1,9,6) -10.8879 (1,10,5) 16.3640
(1,9,6): (1,8,6) -51.2527 (1,9,5) 10.8879 (1,9,7) 10.8916 (1,10,6) 27.2849
(1,9,7): (1,8,7) -13.1617 (1,9,6) -10.8916 (1,9,8) 5.58799 (1,10,7) 16.3680
(1,9,8): (1,8,8) -3.62483 (1,9,7) -5.58799 (1,9,9) 2.36320 (1,10,8) 5.41405
(1,9,9): (1,8,9) -1.04897 (1,9,8) -2.36320 (1,9,10) 0.779515 (1,10,9) 1.86894
(1,9,10): (1,8,10) -0.380819 (1,9,9) -0.779515 (1,10,10) 0.778399
(1,10,1): (1,9,1) -0.238584 (1,10,2) 0.144501 (1,11,1) 9.933115E-02
(1,10,2): (1,9,2) -0.608415 (1,10,1) -0.144501 (1,10,3) 0.375487 (1,11,2) 0.221999
(1,10,3): (1,9,3) -1.81830 (1,10,2) -0.375487 (1,10,4) 1.12745 (1,11,3) 0.486569
(1,10,4): (1,9,4) -5.39965 (1,10,3) -1.12745 (1,10,5) 4.59459 (1,11,4) 0.569550
(1,10,5): (1,9,5) -16.3640 (1,10,4) -4.59459 (1,10,6) -1.45839 (1,11,5) -2.12797
(1,10,6): (1,9,6) -27.2849 (1,10,5) 1.45839 (1,10,7) 1.46537 (1,11,6) -0.491081
(1,10,7): (1,9,7) -16.3680 (1,10,6) -1.46537 (1,10,8) -4.57951 (1,11,7) -2.12640
(1,10,8): (1,9,8) -5.41405 (1,10,7) 4.57951 (1,10,9) -1.09213 (1,11,8) 0.575919
(1,10,9): (1,9,9) -1.86894 (1,10,8) 1.09213 (1,10,10) -0.300331 (1,11,9) 0.508739
(1,10,10): (1,9,10) -0.778399 (1,10,9) 0.300331 (1,11,10) 0.292251
(1,11,1): (1,10,1) -9.933115E-02 (1,11,2) 0.267224 (1,12,1) -4.891925E-02
(1,11,2): (1,10,2) -0.221999 (1,11,1) -0.267224 (1,11,3) 0.640453 (1,12,2) -9.790062E-02
(1,11,3): (1,10,3) -0.486569 (1,11,2) -0.640453 (1,11,4) 1.21090 (1,12,3) -0.250441
(1,11,4): (1,10,4) -0.569550 (1,11,3) -1.21090 (1,11,5) 1.84068 (1,12,4) -0.679279
(1,11,5): (1,10,5) 2.12797 (1,11,4) -1.84068 (1,11,6) 0.169074 (1,12,5) -1.64531
(1,11,6): (1,10,6) 0.491081 (1,11,5) -0.169074 (1,11,7) -0.160636 (1,12,6) -1.55654
(1,11,7): (1,10,7) 2.12640 (1,11,6) 0.160636 (1,11,8) -1.82109 (1,12,7) -1.64667
(1,11,8): (1,10,8) -0.575919 (1,11,7) 1.82109 (1,11,9) -1.15966 (1,12,8) -0.683469
(1,11,9): (1,10,9) -0.508739 (1,11,8) 1.15966 (1,11,10) -0.516836 (1,12,9) -0.262117
(1,11,10): (1,10,10) -0.292251 (1,11,9) 0.516836 (1,12,10) -0.128685
(1,12,1): (1,11,1) 4.891925E-02 (1,12,2) 0.218161 (1,13,1) -9.880374E-02
(1,12,2): (1,11,2) 9.790062E-02 (1,12,1) -0.218161 (1,12,3) 0.487334 (1,13,2) -0.187005
(1,12,3): (1,11,3) 0.250441 (1,12,2) -0.487334 (1,12,4) 0.779906 (1,13,3) -0.396795
(1,12,4): (1,11,4) 0.679279 (1,12,3) -0.779906 (1,12,5) 0.872931 (1,13,4) -0.767753
(1,12,5): (1,11,5) 1.64531 (1,12,4) -0.872931 (1,12,6) 0.256679 (1,13,5) -1.23376
(1,12,6): (1,11,6) 1.55654 (1,12,5) -0.256679 (1,12,7) -0.249572 (1,13,6) -1.34083
(1,12,7): (1,11,7) 1.64667 (1,12,6) 0.249572 (1,12,8) -0.856359 (1,13,7) -1.23624
(1,12,8): (1,11,8) 0.683469 (1,12,7) 0.856359 (1,12,9) -0.736405 (1,13,8) -0.776055
(1,12,9): (1,11,9) 0.262117 (1,12,8) 0.736405 (1,12,10) -0.383075 (1,13,9) -0.420810
(1,12,10): (1,11,10) 0.128685 (1,12,9) 0.383075 (1,13,10) -0.250439
(1,13,1): (1,12,1) 9.880374E-02 (1,13,2) 0.129932 (1,14,1) -7.937608E-02
(1,13,2): (1,12,2) 0.187005 (1,13,1) -0.129932 (1,13,3) 0.277359 (1,14,2) -0.144051
(1,13,3): (1,12,3) 0.396795 (1,13,2) -0.277359 (1,13,4) 0.408904 (1,14,3) -0.286478
(1,13,4): (1,12,4) 0.767753 (1,13,3) -0.408904 (1,13,5) 0.408503 (1,14,4) -0.506033
(1,13,5): (1,12,5) 1.23376 (1,13,4) -0.408503 (1,13,6) 0.150671 (1,14,5) -0.735473
(1,13,6): (1,12,6) 1.34083 (1,13,5) -0.150671 (1,13,7) -0.146033 (1,14,6) -0.815607
(1,13,7): (1,12,7) 1.23624 (1,13,6) 0.146033 (1,13,8) -0.397809 (1,14,7) -0.737529
(1,13,8): (1,12,8) 0.776055 (1,13,7) 0.397809 (1,13,9) -0.381294 (1,14,8) -0.512903
(1,13,9): (1,12,9) 0.420810 (1,13,8) 0.381294 (1,13,10) -0.212767 (1,14,9) -0.306087
(1,13,10): (1,12,10) 0.250439 (1,13,9) 0.212767 (1,14,10) -0.194472
(1,14,1): (1,13,1) 7.937608E-02 (1,14,2) 6.526656E-02 (1,15,1) -3.944351E-02
(1,14,2): (1,13,2) 0.144051 (1,14,1) -6.526656E-02 (1,14,3) 0.134944 (1,15,2) -6.967591E-02
(1,14,3): (1,13,3) 0.286478 (1,14,2) -0.134944 (1,14,4) 0.189557 (1,15,3) -0.133889
(1,14,4): (1,13,4) 0.506033 (1,14,3) -0.189557 (1,14,5) 0.179787 (1,15,4) -0.227312
(1,14,5): (1,13,5) 0.735473 (1,14,4) -0.179787 (1,14,6) 7.104736E-02 (1,15,5) -0.318687
(1,14,6): (1,13,6) 0.815607 (1,14,5) -7.104736E-02 (1,14,7) -6.845593E-02 (1,15,6) -0.354016
(1,14,7): (1,13,7) 0.737529 (1,14,6) 6.845593E-02 (1,14,8) -0.173918 (1,15,7) -0.319737
(1,14,8): (1,13,8) 0.512903 (1,14,7) 0.173918 (1,14,9) -0.174744 (1,15,8) -0.230801
(1,14,9): (1,13,9) 0.306087 (1,14,8) 0.174744 (1,14,10) -0.101254 (1,15,9) -0.143725
(1,14,10): (1,13,10) 0.194472 (1,14,9) 0.101254 (1,15,10) -9.447497E-02
(1,15,1): (1,14,1) 3.944351E-02 (1,15,2) 3.503548E-02
(1,15,2): (1,14,2) 6.967591E-02 (1,15,1) -3.503548E-02 (1,15,3) 7.073039E-02
(1,15,3): (1,14,3) 0.133889 (1,15,2) -7.073039E-02 (1,15,4) 9.616891E-02
(1,15,4): (1,14,4) 0.227312 (1,15,3) -9.616891E-02 (1,15,5) 8.853690E-02
(1,15,5): (1,14,5) 0.318687 (1,15,4) -8.853690E-02 (1,15,6) 3.581632E-02
(1,15,6): (1,14,6) 0.354016 (1,15,5) -3.581632E-02 (1,15,7) -3.427304E-02
(1,15,7): (1,14,7) 0.319737 (1,15,6) 3.427304E-02 (1,15,8) -8.510976E-02
(1,15,8): (1,14,8) 0.230801 (1,15,7) 8.510976E-02 (1,15,9) -8.771670E-02
(1,15,9): (1,14,9) 0.143725 (1,15,8) 8.771670E-02 (1,15,10) -5.202447E-02
(1,15,10): (1,14,10) 9.447497E-02 (1,15,9) 5.202447E-02

 WEL PACKAGE (WEL-1) FLOW RATES   PERIOD      2   STEP       56
 ----------------------------------------------------------------------------------------
   NUMBER   CELLID                    RATE       NAME                                    
 ----------------------------------------------------------------------------------------
     1      (1,8,6)              -206.29879      WEL                                     
 ----------------------------------------------------------------------------------------




 API PACKAGE (MAR) FLOW RATES   PERIOD      2   STEP       56
 -----------------------------------------------
   NUMBER   CELLID                    RATE      
 -----------------------------------------------
     1      (1,6,5)               46.666667     
     2      (1,6,6)               46.666667     
     3      (1,6,7)               46.666667     
     4      (1,10,5)              22.099596     
     5      (1,10,6)              22.099596     
     6      (1,10,7)              22.099596     
 -----------------------------------------------



1
  HEAD IN LAYER   1 AT END OF TIME STEP  56 IN STRESS PERIOD    2
  ---------------------------------------------------------------------------

            1           2           3           4           5           6           7           8           9          10
 ........................................................................................................................
   1   6.1540E-03  1.0451E-02  1.9309E-02  3.1707E-02  4.3462E-02  4.8278E-02  4.3637E-02  3.2275E-02  2.0862E-02  1.4232E-02
   2   1.1073E-02  1.9487E-02  3.7446E-02  6.3815E-02  9.0022E-02  0.1006      9.0321E-02  6.4799E-02  4.0202E-02  2.6405E-02
   3   2.1436E-02  3.9348E-02  7.9372E-02  0.1422      0.2094      0.2353      0.2099      0.1440      8.4608E-02  5.2961E-02
   4   3.5681E-02  6.8726E-02  0.1474      0.2842      0.4506      0.5070      0.4514      0.2870      0.1559      9.1701E-02
   5   4.5978E-02  9.3456E-02  0.2181      0.4756      0.8843      0.9768      0.8853      0.4791      0.2288      0.1234    
   6   3.8351E-02  7.9953E-02  0.2067      0.5708       1.657       1.669       1.657      0.5737      0.2156      0.1047    
   7   8.4669E-03  2.4545E-03 -2.9264E-02 -0.1416     -0.4784      -1.586     -0.4779     -0.1402     -2.6452E-02  6.1005E-03
   8  -1.2760E-02 -5.4573E-02 -0.2106     -0.7207      -2.374      -8.631      -2.374     -0.7205     -0.2122     -6.6222E-02
   9  -1.8429E-03 -2.4260E-02 -0.1069     -0.3459     -0.9242      -2.124     -0.9238     -0.3451     -0.1062     -2.8033E-02
  10   2.1963E-02  3.6361E-02  7.3635E-02  0.1843      0.6171      0.4797      0.6177      0.1864      7.9222E-02  4.9424E-02
  11   3.1865E-02  5.8432E-02  0.1217      0.2400      0.4167      0.4329      0.4175      0.2427      0.1294      7.8422E-02
  12   2.6988E-02  4.8699E-02  9.6964E-02  0.1736      0.2587      0.2837      0.2594      0.1759      0.1036      6.5654E-02
  13   1.7135E-02  3.0089E-02  5.7666E-02  9.8159E-02  0.1385      0.1533      0.1389      9.9672E-02  6.1919E-02  4.0773E-02
  14   9.2106E-03  1.5727E-02  2.9182E-02  4.8047E-02  6.5908E-02  7.2961E-02  6.6165E-02  4.8888E-02  3.1499E-02  2.1405E-02
  15   5.2699E-03  8.7704E-03  1.5832E-02  2.5425E-02  3.4248E-02  3.7816E-02  3.4402E-02  2.5920E-02  1.7171E-02  1.1978E-02

 HEAD WILL BE SAVED ON UNIT 1043 AT END OF TIME STEP   56, STRESS PERIOD    2


  VOLUME BUDGET FOR ENTIRE MODEL AT END OF TIME STEP   56, STRESS PERIOD   2
  ---------------------------------------------------------------------------------------------------

     CUMULATIVE VOLUME      L**3       RATES FOR THIS TIME STEP      L**3/T          PACKAGE NAME    
     ------------------                 ------------------------                     ----------------

           IN:                                      IN:
           ---                                      ---
              STO-SS =          22.1347                STO-SS =       1.8413E-02     STORAGE                          
              STO-SY =       53390.2982                STO-SY =          38.1729     STORAGE                          
                 WEL =           0.0000                   WEL =           0.0000     WEL-1                            
                 API =      131087.3135                   API =         206.2988     MAR                              
                 CHD =       2.8247E-08                   CHD =           0.0000     CHD_0                            

            TOTAL IN =      184499.7464              TOTAL IN =         244.4901

          OUT:                                     OUT:
          ----                                     ----
              STO-SS =          27.7256                STO-SS =       1.9561E-02     STORAGE                          
              STO-SY =       53384.7074                STO-SY =          38.1717     STORAGE                          
                 WEL =      131087.3135                   WEL =         206.2988     WEL-1                            
                 API =           0.0000                   API =           0.0000     MAR                              
                 CHD =       3.0388E-08                   CHD =           0.0000     CHD_0                            

           TOTAL OUT =      184499.7464             TOTAL OUT =         244.4901

            IN - OUT =       9.2483E-07              IN - OUT =       6.5645E-09

 PERCENT DISCREPANCY =           0.00     PERCENT DISCREPANCY =           0.00




         TIME SUMMARY AT END OF TIME STEP   56 IN STRESS PERIOD    2
                    SECONDS     MINUTES      HOURS       DAYS        YEARS
                    -----------------------------------------------------------
   TIME STEP LENGTH 8.64000E+05  14400.      240.00      10.000     2.73785E-02
 STRESS PERIOD TIME 4.83840E+07 8.06400E+05  13440.      560.00      1.5332    
         TOTAL TIME 4.84704E+07 8.07840E+05  13464.      561.00      1.5359    


end timestep


start timestep kper="2" kstp="57" mode="normal"

 UBDSV1 SAVING           STO-SS ON UNIT   1042 AT TIME STEP     57, STRESS PERIOD      2
 UBDSV1 SAVING           STO-SY ON UNIT   1042 AT TIME STEP     57, STRESS PERIOD      2
 UBDSV1 SAVING     FLOW-JA-FACE ON UNIT   1042 AT TIME STEP     57, STRESS PERIOD      2
 UBDSV06 SAVING       DATA-SPDIS IN MODEL GWF              PACKAGE NPF             CONNECTED TO MODEL GWF              PACKAGE NPF              ON UNIT   1042 AT TIME STEP     57, STRESS PERIOD      2
 UBDSV06 SAVING              WEL IN MODEL GWF              PACKAGE GWF             CONNECTED TO MODEL GWF              PACKAGE WEL-1            ON UNIT   1042 AT TIME STEP     57, STRESS PERIOD      2
 UBDSV06 SAVING              API IN MODEL GWF              PACKAGE GWF             CONNECTED TO MODEL GWF              PACKAGE MAR              ON UNIT   1042 AT TIME STEP     57, STRESS PERIOD      2
 UBDSV06 SAVING              CHD IN MODEL GWF              PACKAGE GWF             CONNECTED TO MODEL GWF              PACKAGE CHD_0            ON UNIT   1042 AT TIME STEP     57, STRESS PERIOD      2

    CALCULATED INTERCELL FLOW FOR PERIOD 2 STEP 57
(1,1,1): (1,1,2) 4.525549E-02 (1,2,1) 5.159922E-02
(1,1,2): (1,1,1) -4.525549E-02 (1,1,3) 9.288689E-02 (1,2,2) 9.396405E-02
(1,1,3): (1,1,2) -9.288689E-02 (1,1,4) 0.129392 (1,2,3) 0.187410
(1,1,4): (1,1,3) -0.129392 (1,1,5) 0.122276 (1,2,4) 0.330772
(1,1,5): (1,1,4) -0.122276 (1,1,6) 5.008816E-02 (1,2,5) 0.479300
(1,1,6): (1,1,5) -5.008816E-02 (1,1,7) -4.814249E-02 (1,2,6) 0.538887
(1,1,7): (1,1,6) 4.814249E-02 (1,1,8) -0.117974 (1,2,7) 0.480653
(1,1,8): (1,1,7) 0.117974 (1,1,9) -0.118761 (1,2,8) 0.335262
(1,1,9): (1,1,8) 0.118761 (1,1,10) -6.914246E-02 (1,2,9) 0.200178
(1,1,10): (1,1,9) 6.914246E-02 (1,2,10) 0.126810
(1,2,1): (1,1,1) -5.159922E-02 (1,2,2) 8.761764E-02 (1,3,1) 0.107863
(1,2,2): (1,1,2) -9.396405E-02 (1,2,1) -8.761764E-02 (1,2,3) 0.186332 (1,3,2) 0.205114
(1,2,3): (1,1,3) -0.187410 (1,2,2) -0.186332 (1,2,4) 0.272673 (1,3,3) 0.431322
(1,2,4): (1,1,4) -0.330772 (1,2,3) -0.272673 (1,2,5) 0.270501 (1,3,4) 0.807117
(1,2,5): (1,1,5) -0.479300 (1,2,4) -0.270501 (1,2,6) 0.109426 (1,3,5) 1.23322
(1,2,6): (1,1,6) -0.538887 (1,2,5) -0.109426 (1,2,7) -0.106132 (1,3,6) 1.39477
(1,2,7): (1,1,7) -0.480653 (1,2,6) 0.106132 (1,2,8) -0.263056 (1,3,7) 1.23595
(1,2,8): (1,1,8) -0.335262 (1,2,7) 0.263056 (1,2,9) -0.253737 (1,3,8) 0.816211
(1,2,9): (1,1,9) -0.200178 (1,2,8) 0.253737 (1,2,10) -0.142469 (1,3,9) 0.457642
(1,2,10): (1,1,10) -0.126810 (1,2,9) 0.142469 (1,3,10) 0.274925
(1,3,1): (1,2,1) -0.107863 (1,3,2) 0.184850 (1,4,1) 0.146606
(1,3,2): (1,2,2) -0.205114 (1,3,1) -0.184850 (1,3,3) 0.412497 (1,4,2) 0.300675
(1,3,3): (1,2,3) -0.431322 (1,3,2) -0.412497 (1,3,4) 0.647891 (1,4,3) 0.697421
(1,3,4): (1,2,4) -0.807117 (1,3,3) -0.647891 (1,3,5) 0.694433 (1,4,4) 1.46853
(1,3,5): (1,2,5) -1.23322 (1,3,4) -0.694433 (1,3,6) 0.269278 (1,4,5) 2.53045
(1,3,6): (1,2,6) -1.39477 (1,3,5) -0.269278 (1,3,7) -0.263275 (1,4,6) 2.86472
(1,3,7): (1,2,7) -1.23595 (1,3,6) 0.263275 (1,3,8) -0.680590 (1,4,7) 2.53398
(1,3,8): (1,2,8) -0.816211 (1,3,7) 0.680590 (1,3,9) -0.611598 (1,4,8) 1.48025
(1,3,9): (1,2,9) -0.457642 (1,3,8) 0.611598 (1,3,10) -0.324950 (1,4,9) 0.732218
(1,3,10): (1,2,10) -0.274925 (1,3,9) 0.324950 (1,4,10) 0.397793
(1,4,1): (1,3,1) -0.146606 (1,4,2) 0.338977 (1,5,1) 0.103615
(1,4,2): (1,3,2) -0.300675 (1,4,1) -0.338977 (1,4,3) 0.809673 (1,5,2) 0.248902
(1,4,3): (1,3,3) -0.697421 (1,4,2) -0.809673 (1,4,4) 1.41864 (1,5,3) 0.719382
(1,4,4): (1,3,4) -1.46853 (1,4,3) -1.41864 (1,4,5) 1.74893 (1,5,4) 1.99916
(1,4,5): (1,3,5) -2.53045 (1,4,4) -1.74893 (1,4,6) 0.596970 (1,5,5) 4.71094
(1,4,6): (1,3,6) -2.86472 (1,4,5) -0.596970 (1,4,7) -0.587481 (1,5,6) 5.14623
(1,4,7): (1,3,7) -2.53398 (1,4,6) 0.587481 (1,4,8) -1.72672 (1,5,7) 4.71335
(1,4,8): (1,3,8) -1.48025 (1,4,7) 1.72672 (1,4,9) -1.35878 (1,5,8) 2.00666
(1,4,9): (1,3,9) -0.732218 (1,4,8) 1.35878 (1,4,10) -0.659139 (1,5,9) 0.742405
(1,4,10): (1,3,10) -0.397793 (1,4,9) 0.659139 (1,5,10) 0.319763
(1,5,1): (1,4,1) -0.103615 (1,5,2) 0.484598 (1,6,1) -8.189465E-02
(1,5,2): (1,4,2) -0.248902 (1,5,1) -0.484598 (1,5,3) 1.28267 (1,6,2) -0.145352
(1,5,3): (1,4,3) -0.719382 (1,5,2) -1.28267 (1,5,4) 2.70655 (1,6,3) -0.132749
(1,5,4): (1,4,4) -1.99916 (1,5,3) -2.70655 (1,5,5) 4.45503 (1,6,4) 0.981616
(1,5,5): (1,4,5) -4.71094 (1,5,4) -4.45503 (1,5,6) 1.01873 (1,6,5) 8.96983
(1,5,6): (1,4,6) -5.14623 (1,5,5) -1.01873 (1,5,7) -1.00686 (1,6,6) 8.04672
(1,5,7): (1,4,7) -4.71335 (1,5,6) 1.00686 (1,5,8) -4.42706 (1,6,7) 8.96839
(1,5,8): (1,4,8) -2.00666 (1,5,7) 4.42706 (1,5,9) -2.63011 (1,6,8) 0.975362
(1,5,9): (1,4,9) -0.742405 (1,5,8) 2.63011 (1,5,10) -1.08315 (1,6,9) -0.152716
(1,5,10): (1,4,10) -0.319763 (1,5,9) 1.08315 (1,6,10) -0.201241
(1,6,1): (1,5,1) 8.189465E-02 (1,6,2) 0.420931 (1,7,1) -0.308460
(1,6,2): (1,5,2) 0.145352 (1,6,1) -0.420931 (1,6,3) 1.29543 (1,7,2) -0.794972
(1,6,3): (1,5,3) 0.132749 (1,6,2) -1.29543 (1,6,4) 3.84946 (1,7,3) -2.43198
(1,6,4): (1,5,4) -0.981616 (1,6,3) -3.84946 (1,6,5) 12.6572 (1,7,4) -7.56481
(1,6,5): (1,5,5) -8.96983 (1,6,4) -12.6572 (1,6,6) 0.149715 (1,7,5) -24.9258
(1,6,6): (1,5,6) -8.04672 (1,6,5) -0.149715 (1,6,7) -0.139231 (1,7,6) -38.0180
(1,6,7): (1,5,7) -8.96839 (1,6,6) 0.139231 (1,6,8) -12.6329 (1,7,7) -24.9319
(1,6,8): (1,5,8) -0.975362 (1,6,7) 12.6329 (1,6,9) -3.78644 (1,7,8) -7.58426
(1,6,9): (1,5,9) 0.152716 (1,6,8) 3.78644 (1,6,10) -1.13212 (1,7,9) -2.49810
(1,6,10): (1,5,10) 0.201241 (1,6,9) 1.13212 (1,7,10) -1.01552
(1,7,1): (1,6,1) 0.308460 (1,7,2) -6.383461E-02 (1,8,1) -0.218652
(1,7,2): (1,6,2) 0.794972 (1,7,1) 6.383461E-02 (1,7,3) -0.324881 (1,8,2) -0.581103
(1,7,3): (1,6,3) 2.43198 (1,7,2) 0.324881 (1,7,4) -1.12844 (1,8,3) -1.82807
(1,7,4): (1,6,4) 7.56481 (1,7,3) 1.12844 (1,7,5) -3.32015 (1,8,4) -5.73857
(1,7,5): (1,6,5) 24.9258 (1,7,4) 3.32015 (1,7,6) -10.5347 (1,8,5) -18.0827
(1,7,6): (1,6,6) 38.0180 (1,7,5) 10.5347 (1,7,7) 10.5405 (1,8,6) -59.2776
(1,7,7): (1,6,7) 24.9319 (1,7,6) -10.5405 (1,7,8) 3.32948 (1,8,7) -18.0866
(1,7,8): (1,6,8) 7.58426 (1,7,7) -3.32948 (1,7,9) 1.14311 (1,8,8) -5.75175
(1,7,9): (1,6,9) 2.49810 (1,7,8) -1.14311 (1,7,10) 0.332299 (1,8,9) -1.87392
(1,7,10): (1,6,10) 1.01552 (1,7,9) -0.332299 (1,8,10) -0.738219
(1,8,1): (1,7,1) 0.218652 (1,8,2) -0.425725 (1,9,1) 0.109065
(1,8,2): (1,7,2) 0.581103 (1,8,1) 0.425725 (1,8,3) -1.56864 (1,9,2) 0.300535
(1,8,3): (1,7,3) 1.82807 (1,8,2) 1.56864 (1,8,4) -5.01095 (1,9,3) 1.01903
(1,8,4): (1,7,4) 5.73857 (1,8,3) 5.01095 (1,8,5) -15.3410 (1,9,4) 3.59603
(1,8,5): (1,7,5) 18.0827 (1,8,4) 15.3410 (1,8,6) -47.6492 (1,9,5) 13.1032
(1,8,6): (1,7,6) 59.2776 (1,8,5) 47.6492 (1,8,7) 47.6524 (1,9,6) 51.1125
(1,8,7): (1,7,7) 18.0866 (1,8,6) -47.6524 (1,8,8) 15.3409 (1,9,7) 13.1051
(1,8,8): (1,7,8) 5.75175 (1,8,7) -15.3409 (1,8,9) 4.99196 (1,9,8) 3.60226
(1,8,9): (1,7,9) 1.87392 (1,8,8) -4.99196 (1,8,10) 1.46337 (1,9,9) 1.04131
(1,8,10): (1,7,10) 0.738219 (1,8,9) -1.46337 (1,9,10) 0.378641
(1,9,1): (1,8,1) -0.109065 (1,9,2) -0.234014 (1,10,1) 0.243469
(1,9,2): (1,8,2) -0.300535 (1,9,1) 0.234014 (1,9,3) -0.846158 (1,10,2) 0.615030
(1,9,3): (1,8,3) -1.01903 (1,9,2) 0.846158 (1,9,4) -2.39639 (1,10,3) 1.82575
(1,9,4): (1,8,4) -3.59603 (1,9,3) 2.39639 (1,9,5) -5.60995 (1,10,4) 5.39930
(1,9,5): (1,8,5) -13.1032 (1,9,4) 5.60995 (1,9,6) -10.8794 (1,10,5) 16.3273
(1,9,6): (1,8,6) -51.1125 (1,9,5) 10.8794 (1,9,7) 10.8833 (1,10,6) 27.2208
(1,9,7): (1,8,7) -13.1051 (1,9,6) -10.8833 (1,9,8) 5.61449 (1,10,7) 16.3315
(1,9,8): (1,8,8) -3.60226 (1,9,7) -5.61449 (1,9,9) 2.39433 (1,10,8) 5.41421
(1,9,9): (1,8,9) -1.04131 (1,9,8) -2.39433 (1,9,10) 0.797867 (1,10,9) 1.87769
(1,9,10): (1,8,10) -0.378641 (1,9,9) -0.797867 (1,10,10) 0.787792
(1,10,1): (1,9,1) -0.243469 (1,10,2) 0.136330 (1,11,1) 0.105072
(1,10,2): (1,9,2) -0.615030 (1,10,1) -0.136330 (1,10,3) 0.354221 (1,11,2) 0.232379
(1,10,3): (1,9,3) -1.82575 (1,10,2) -0.354221 (1,10,4) 1.08795 (1,11,3) 0.506872
(1,10,4): (1,9,4) -5.39930 (1,10,3) -1.08795 (1,10,5) 4.53413 (1,11,4) 0.606032
(1,10,5): (1,9,5) -16.3273 (1,10,4) -4.53413 (1,10,6) -1.47241 (1,11,5) -2.06169
(1,10,6): (1,9,6) -27.2208 (1,10,5) 1.47241 (1,10,7) 1.47969 (1,11,6) -0.422422
(1,10,7): (1,9,7) -16.3315 (1,10,6) -1.47969 (1,10,8) -4.51875 (1,11,7) -2.05999
(1,10,8): (1,9,8) -5.41421 (1,10,7) 4.51875 (1,10,9) -1.05278 (1,11,8) 0.612882
(1,10,9): (1,9,9) -1.87769 (1,10,8) 1.05278 (1,10,10) -0.281330 (1,11,9) 0.530458
(1,10,10): (1,9,10) -0.787792 (1,10,9) 0.281330 (1,11,10) 0.306322
(1,11,1): (1,10,1) -0.105072 (1,11,2) 0.263676 (1,12,1) -4.627096E-02
(1,11,2): (1,10,2) -0.232379 (1,11,1) -0.263676 (1,11,3) 0.629040 (1,12,2) -9.135520E-02
(1,11,3): (1,10,3) -0.506872 (1,11,2) -0.629040 (1,11,4) 1.18763 (1,12,3) -0.234586
(1,11,4): (1,10,4) -0.606032 (1,11,3) -1.18763 (1,11,5) 1.81079 (1,12,4) -0.647680
(1,11,5): (1,10,5) 2.06169 (1,11,4) -1.81079 (1,11,6) 0.158528 (1,12,5) -1.59448
(1,11,6): (1,10,6) 0.422422 (1,11,5) -0.158528 (1,11,7) -0.149661 (1,12,6) -1.49955
(1,11,7): (1,10,7) 2.05999 (1,11,6) 0.149661 (1,11,8) -1.79055 (1,12,7) -1.59583
(1,11,8): (1,10,8) -0.612882 (1,11,7) 1.79055 (1,11,9) -1.13558 (1,12,8) -0.651759
(1,11,9): (1,10,9) -0.530458 (1,11,8) 1.13558 (1,11,10) -0.505411 (1,12,9) -0.245701
(1,11,10): (1,10,10) -0.306322 (1,11,9) 0.505411 (1,12,10) -0.120084
(1,12,1): (1,11,1) 4.627096E-02 (1,12,2) 0.218515 (1,13,1) -9.957761E-02
(1,12,2): (1,11,2) 9.135520E-02 (1,12,1) -0.218515 (1,12,3) 0.485259 (1,13,2) -0.186218
(1,12,3): (1,11,3) 0.234586 (1,12,2) -0.485259 (1,12,4) 0.772420 (1,13,3) -0.391598
(1,12,4): (1,11,4) 0.647680 (1,12,3) -0.772420 (1,12,5) 0.862117 (1,13,4) -0.754336
(1,12,5): (1,11,5) 1.59448 (1,12,4) -0.862117 (1,12,6) 0.252258 (1,13,5) -1.21066
(1,12,6): (1,11,6) 1.49955 (1,12,5) -0.252258 (1,12,7) -0.244714 (1,13,6) -1.31392
(1,12,7): (1,11,7) 1.59583 (1,12,6) 0.244714 (1,12,8) -0.844808 (1,13,7) -1.21324
(1,12,8): (1,11,8) 0.651759 (1,12,7) 0.844808 (1,12,9) -0.727665 (1,13,8) -0.762857
(1,12,9): (1,11,9) 0.245701 (1,12,8) 0.727665 (1,12,10) -0.379477 (1,13,9) -0.415928
(1,12,10): (1,11,10) 0.120084 (1,12,9) 0.379477 (1,13,10) -0.249690
(1,13,1): (1,12,1) 9.957761E-02 (1,13,2) 0.131847 (1,14,1) -8.149594E-02
(1,13,2): (1,12,2) 0.186218 (1,13,1) -0.131847 (1,13,3) 0.279691 (1,14,2) -0.146189
(1,13,3): (1,12,3) 0.391598 (1,13,2) -0.279691 (1,13,4) 0.409619 (1,14,3) -0.287887
(1,13,4): (1,12,4) 0.754336 (1,13,3) -0.409619 (1,13,5) 0.407283 (1,14,4) -0.505188
(1,13,5): (1,12,5) 1.21066 (1,13,4) -0.407283 (1,13,6) 0.150011 (1,14,5) -0.731537
(1,13,6): (1,12,6) 1.31392 (1,13,5) -0.150011 (1,13,7) -0.145031 (1,14,6) -0.810332
(1,13,7): (1,12,7) 1.21324 (1,13,6) 0.145031 (1,13,8) -0.395977 (1,14,7) -0.733708
(1,13,8): (1,12,8) 0.762857 (1,13,7) 0.395977 (1,13,9) -0.380853 (1,14,8) -0.512364
(1,13,9): (1,12,9) 0.415928 (1,13,8) 0.380853 (1,13,10) -0.213298 (1,14,9) -0.308123
(1,13,10): (1,12,10) 0.249690 (1,13,9) 0.213298 (1,14,10) -0.197610
(1,14,1): (1,13,1) 8.149594E-02 (1,14,2) 6.716285E-02 (1,15,1) -4.095480E-02
(1,14,2): (1,13,2) 0.146189 (1,14,1) -6.716285E-02 (1,14,3) 0.138005 (1,15,2) -7.153903E-02
(1,14,3): (1,13,3) 0.287887 (1,14,2) -0.138005 (1,14,4) 0.192520 (1,15,3) -0.136129
(1,14,4): (1,13,4) 0.505188 (1,14,3) -0.192520 (1,14,5) 0.181642 (1,15,4) -0.229531
(1,14,5): (1,13,5) 0.731537 (1,14,4) -0.181642 (1,14,6) 7.171330E-02 (1,15,5) -0.320483
(1,14,6): (1,13,6) 0.810332 (1,14,5) -7.171330E-02 (1,14,7) -6.889392E-02 (1,15,6) -0.355593
(1,14,7): (1,13,7) 0.733708 (1,14,6) 6.889392E-02 (1,14,8) -0.175354 (1,15,7) -0.321604
(1,14,8): (1,13,8) 0.512364 (1,14,7) 0.175354 (1,14,9) -0.176874 (1,15,8) -0.233215
(1,14,9): (1,13,9) 0.308123 (1,14,8) 0.176874 (1,14,10) -0.102888 (1,15,9) -0.146393
(1,14,10): (1,13,10) 0.197610 (1,14,9) 0.102888 (1,15,10) -9.712015E-02
(1,15,1): (1,14,1) 4.095480E-02 (1,15,2) 3.657995E-02
(1,15,2): (1,14,2) 7.153903E-02 (1,15,1) -3.657995E-02 (1,15,3) 7.341392E-02
(1,15,3): (1,14,3) 0.136129 (1,15,2) -7.341392E-02 (1,15,4) 9.915219E-02
(1,15,4): (1,14,4) 0.229531 (1,15,3) -9.915219E-02 (1,15,5) 9.081434E-02
(1,15,5): (1,14,5) 0.320483 (1,15,4) -9.081434E-02 (1,15,6) 3.670057E-02
(1,15,6): (1,14,6) 0.355593 (1,15,5) -3.670057E-02 (1,15,7) -3.499947E-02
(1,15,7): (1,14,7) 0.321604 (1,15,6) 3.499947E-02 (1,15,8) -8.709236E-02
(1,15,8): (1,14,8) 0.233215 (1,15,7) 8.709236E-02 (1,15,9) -9.009957E-02
(1,15,9): (1,14,9) 0.146393 (1,15,8) 9.009957E-02 (1,15,10) -5.363628E-02
(1,15,10): (1,14,10) 9.712015E-02 (1,15,9) 5.363628E-02

 WEL PACKAGE (WEL-1) FLOW RATES   PERIOD      2   STEP       57
 ----------------------------------------------------------------------------------------
   NUMBER   CELLID                    RATE       NAME                                    
 ----------------------------------------------------------------------------------------
     1      (1,8,6)              -206.01544      WEL                                     
 ----------------------------------------------------------------------------------------




 API PACKAGE (MAR) FLOW RATES   PERIOD      2   STEP       57
 -----------------------------------------------
   NUMBER   CELLID                    RATE      
 -----------------------------------------------
     1      (1,6,5)               46.666667     
     2      (1,6,6)               46.666667     
     3      (1,6,7)               46.666667     
     4      (1,10,5)              22.005147     
     5      (1,10,6)              22.005147     
     6      (1,10,7)              22.005147     
 -----------------------------------------------



1
  HEAD IN LAYER   1 AT END OF TIME STEP  57 IN STRESS PERIOD    2
  ---------------------------------------------------------------------------

            1           2           3           4           5           6           7           8           9          10
 ........................................................................................................................
   1   6.6380E-03  1.1158E-02  2.0428E-02  3.3324E-02  4.5497E-02  5.0480E-02  4.5690E-02  3.3947E-02  2.2111E-02  1.5212E-02
   2   1.1792E-02  2.0536E-02  3.9096E-02  6.6184E-02  9.2985E-02  0.1038      9.3311E-02  6.7249E-02  4.2045E-02  2.7857E-02
   3   2.2554E-02  4.0963E-02  8.1878E-02  0.1457      0.2137      0.2400      0.2143      0.1477      8.7412E-02  5.5199E-02
   4   3.7160E-02  7.0820E-02  0.1506      0.2885      0.4557      0.5125      0.4566      0.2915      0.1595      9.4605E-02
   5   4.7473E-02  9.5474E-02  0.2210      0.4792      0.8884      0.9812      0.8895      0.4829      0.2320      0.1262    
   6   3.9322E-02  8.1077E-02  0.2080      0.5721       1.658       1.671       1.659      0.5752      0.2171      0.1063    
   7   8.5967E-03  2.2188E-03 -3.0262E-02 -0.1434     -0.4803      -1.587     -0.4798     -0.1420     -2.7385E-02  5.8257E-03
   8  -1.3250E-02 -5.5879E-02 -0.2136     -0.7257      -2.380      -8.633      -2.380     -0.7255     -0.2153     -6.7953E-02
   9  -2.3407E-03 -2.5748E-02 -0.1106     -0.3529     -0.9344      -2.134     -0.9340     -0.3521     -0.1100     -2.9975E-02
  10   2.1953E-02  3.5538E-02  7.0711E-02  0.1776      0.6051      0.4663      0.6058      0.1798      7.6344E-02  4.8424E-02
  11   3.2426E-02  5.8640E-02  0.1208      0.2368      0.4107      0.4259      0.4116      0.2396      0.1287      7.8817E-02
  12   2.7814E-02  4.9558E-02  9.7615E-02  0.1735      0.2576      0.2821      0.2583      0.1760      0.1045      6.6902E-02
  13   1.7884E-02  3.1028E-02  5.8833E-02  9.9392E-02  0.1396      0.1543      0.1401      0.1010      6.3295E-02  4.2099E-02
  14   9.7489E-03  1.6454E-02  3.0213E-02  4.9370E-02  6.7413E-02  7.4531E-02  6.7693E-02  5.0275E-02  3.2677E-02  2.2421E-02
  15   5.6574E-03  9.3120E-03  1.6641E-02  2.6530E-02  3.5579E-02  3.9235E-02  3.5749E-02  2.7071E-02  1.8085E-02  1.2731E-02

 HEAD WILL BE SAVED ON UNIT 1043 AT END OF TIME STEP   57, STRESS PERIOD    2


  VOLUME BUDGET FOR ENTIRE MODEL AT END OF TIME STEP   57, STRESS PERIOD   2
  ---------------------------------------------------------------------------------------------------

     CUMULATIVE VOLUME      L**3       RATES FOR THIS TIME STEP      L**3/T          PACKAGE NAME    
     ------------------                 ------------------------                     ----------------

           IN:                                      IN:
           ---                                      ---
              STO-SS =          22.3164                STO-SS =       1.8172E-02     STORAGE                          
              STO-SY =       53766.9593                STO-SY =          37.6661     STORAGE                          
                 WEL =           0.0000                   WEL =           0.0000     WEL-1                            
                 API =      133147.4679                   API =         206.0154     MAR                              
                 CHD =       2.8247E-08                   CHD =           0.0000     CHD_0                            

            TOTAL IN =      186936.7436              TOTAL IN =         243.6997

          OUT:                                     OUT:
          ----                                     ----
              STO-SS =          27.9186                STO-SS =       1.9302E-02     STORAGE                          
              STO-SY =       53761.3572                STO-SY =          37.6650     STORAGE                          
                 WEL =      133147.4679                   WEL =         206.0154     WEL-1                            
                 API =           0.0000                   API =           0.0000     MAR                              
                 CHD =       3.0388E-08                   CHD =           0.0000     CHD_0                            

           TOTAL OUT =      186936.7436             TOTAL OUT =         243.6997

            IN - OUT =       9.9337E-07              IN - OUT =       6.8527E-09

 PERCENT DISCREPANCY =           0.00     PERCENT DISCREPANCY =           0.00




         TIME SUMMARY AT END OF TIME STEP   57 IN STRESS PERIOD    2
                    SECONDS     MINUTES      HOURS       DAYS        YEARS
                    -----------------------------------------------------------
   TIME STEP LENGTH 8.64000E+05  14400.      240.00      10.000     2.73785E-02
 STRESS PERIOD TIME 4.92480E+07 8.20800E+05  13680.      570.00      1.5606    
         TOTAL TIME 4.93344E+07 8.22240E+05  13704.      571.00      1.5633    


end timestep


start timestep kper="2" kstp="58" mode="normal"

 UBDSV1 SAVING           STO-SS ON UNIT   1042 AT TIME STEP     58, STRESS PERIOD      2
 UBDSV1 SAVING           STO-SY ON UNIT   1042 AT TIME STEP     58, STRESS PERIOD      2
 UBDSV1 SAVING     FLOW-JA-FACE ON UNIT   1042 AT TIME STEP     58, STRESS PERIOD      2
 UBDSV06 SAVING       DATA-SPDIS IN MODEL GWF              PACKAGE NPF             CONNECTED TO MODEL GWF              PACKAGE NPF              ON UNIT   1042 AT TIME STEP     58, STRESS PERIOD      2
 UBDSV06 SAVING              WEL IN MODEL GWF              PACKAGE GWF             CONNECTED TO MODEL GWF              PACKAGE WEL-1            ON UNIT   1042 AT TIME STEP     58, STRESS PERIOD      2
 UBDSV06 SAVING              API IN MODEL GWF              PACKAGE GWF             CONNECTED TO MODEL GWF              PACKAGE MAR              ON UNIT   1042 AT TIME STEP     58, STRESS PERIOD      2
 UBDSV06 SAVING              CHD IN MODEL GWF              PACKAGE GWF             CONNECTED TO MODEL GWF              PACKAGE CHD_0            ON UNIT   1042 AT TIME STEP     58, STRESS PERIOD      2

    CALCULATED INTERCELL FLOW FOR PERIOD 2 STEP 58
(1,1,1): (1,1,2) 4.753065E-02 (1,2,1) 5.397029E-02
(1,1,2): (1,1,1) -4.753065E-02 (1,1,3) 9.706242E-02 (1,2,2) 9.737482E-02
(1,1,3): (1,1,2) -9.706242E-02 (1,1,4) 0.134440 (1,2,3) 0.192689
(1,1,4): (1,1,3) -0.134440 (1,1,5) 0.126496 (1,2,4) 0.338240
(1,1,5): (1,1,4) -0.126496 (1,1,6) 5.178628E-02 (1,2,5) 0.488541
(1,1,6): (1,1,5) -5.178628E-02 (1,1,7) -4.964006E-02 (1,2,6) 0.548838
(1,1,7): (1,1,6) 4.964006E-02 (1,1,8) -0.121816 (1,2,7) 0.489991
(1,1,8): (1,1,7) 0.121816 (1,1,9) -0.123021 (1,2,8) 0.343006
(1,1,9): (1,1,8) 0.123021 (1,1,10) -7.185005E-02 (1,2,9) 0.206103
(1,1,10): (1,1,9) 7.185005E-02 (1,2,10) 0.131548
(1,2,1): (1,1,1) -5.397029E-02 (1,2,2) 9.093240E-02 (1,3,1) 0.111848
(1,2,2): (1,1,2) -9.737482E-02 (1,2,1) -9.093240E-02 (1,2,3) 0.192376 (1,3,2) 0.210739
(1,2,3): (1,1,3) -0.192689 (1,2,2) -0.192376 (1,2,4) 0.279907 (1,3,3) 0.439809
(1,2,4): (1,1,4) -0.338240 (1,2,3) -0.279907 (1,2,5) 0.276486 (1,3,4) 0.818809
(1,2,5): (1,1,5) -0.488541 (1,2,4) -0.276486 (1,2,6) 0.111827 (1,3,5) 1.24739
(1,2,6): (1,1,6) -0.548838 (1,2,5) -0.111827 (1,2,7) -0.108236 (1,3,6) 1.40994
(1,2,7): (1,1,7) -0.489991 (1,2,6) 0.108236 (1,2,8) -0.268483 (1,3,7) 1.25029
(1,2,8): (1,1,8) -0.343006 (1,2,7) 0.268483 (1,2,9) -0.259811 (1,3,8) 0.828379
(1,2,9): (1,1,9) -0.206103 (1,2,8) 0.259811 (1,2,10) -0.146361 (1,3,9) 0.467223
(1,2,10): (1,1,10) -0.131548 (1,2,9) 0.146361 (1,3,10) 0.282757
(1,3,1): (1,2,1) -0.111848 (1,3,2) 0.189803 (1,4,1) 0.150161
(1,3,2): (1,2,2) -0.210739 (1,3,1) -0.189803 (1,3,3) 0.421405 (1,4,2) 0.305353
(1,3,3): (1,2,3) -0.439809 (1,3,2) -0.421405 (1,3,4) 0.658322 (1,4,3) 0.703819
(1,3,4): (1,2,4) -0.818809 (1,3,3) -0.658322 (1,3,5) 0.702865 (1,4,4) 1.47643
(1,3,5): (1,2,5) -1.24739 (1,3,4) -0.702865 (1,3,6) 0.272651 (1,4,5) 2.53916
(1,3,6): (1,2,6) -1.40994 (1,3,5) -0.272651 (1,3,7) -0.266183 (1,4,6) 2.87384
(1,3,7): (1,2,7) -1.25029 (1,3,6) 0.266183 (1,3,8) -0.688154 (1,4,7) 2.54286
(1,3,8): (1,2,8) -0.828379 (1,3,7) 0.688154 (1,3,9) -0.620243 (1,4,8) 1.48860
(1,3,9): (1,2,9) -0.467223 (1,3,8) 0.620243 (1,3,10) -0.330580 (1,4,9) 0.739609
(1,3,10): (1,2,10) -0.282757 (1,3,9) 0.330580 (1,4,10) 0.404351
(1,4,1): (1,3,1) -0.150161 (1,4,2) 0.345056 (1,5,1) 0.103647
(1,4,2): (1,3,2) -0.305353 (1,4,1) -0.345056 (1,4,3) 0.820317 (1,5,2) 0.248000
(1,4,3): (1,3,3) -0.703819 (1,4,2) -0.820317 (1,4,4) 1.43060 (1,5,3) 0.716327
(1,4,4): (1,3,4) -1.47643 (1,4,3) -1.43060 (1,4,5) 1.75818 (1,5,4) 1.99286
(1,4,5): (1,3,5) -2.53916 (1,4,4) -1.75818 (1,4,6) 0.600743 (1,5,5) 4.70142
(1,4,6): (1,3,6) -2.87384 (1,4,5) -0.600743 (1,4,7) -0.590617 (1,5,6) 5.13603
(1,4,7): (1,3,7) -2.54286 (1,4,6) 0.590617 (1,4,8) -1.73480 (1,5,7) 4.70389
(1,4,8): (1,3,8) -1.48860 (1,4,7) 1.73480 (1,4,9) -1.36840 (1,5,8) 2.00044
(1,4,9): (1,3,9) -0.739609 (1,4,8) 1.36840 (1,4,10) -0.665600 (1,5,9) 0.739403
(1,4,10): (1,3,10) -0.404351 (1,4,9) 0.665600 (1,5,10) 0.318617
(1,5,1): (1,4,1) -0.103647 (1,5,2) 0.489750 (1,6,1) -8.723899E-02
(1,5,2): (1,4,2) -0.248000 (1,5,1) -0.489750 (1,5,3) 1.29120 (1,6,2) -0.154396
(1,5,3): (1,4,3) -0.716327 (1,5,2) -1.29120 (1,5,4) 2.71541 (1,6,3) -0.148728
(1,5,4): (1,4,4) -1.99286 (1,5,3) -2.71541 (1,5,5) 4.46143 (1,6,4) 0.957562
(1,5,5): (1,4,5) -4.70142 (1,5,4) -4.46143 (1,5,6) 1.02190 (1,6,5) 8.93927
(1,5,6): (1,4,6) -5.13603 (1,5,5) -1.02190 (1,5,7) -1.00933 (1,6,6) 8.01609
(1,5,7): (1,4,7) -4.70389 (1,5,6) 1.00933 (1,5,8) -4.43224 (1,6,7) 8.93768
(1,5,8): (1,4,8) -2.00044 (1,5,7) 4.43224 (1,5,9) -2.63663 (1,6,8) 0.950804
(1,5,9): (1,4,9) -0.739403 (1,5,8) 2.63663 (1,5,10) -1.08777 (1,6,9) -0.170077
(1,5,10): (1,4,10) -0.318617 (1,5,9) 1.08777 (1,6,10) -0.213665
(1,6,1): (1,5,1) 8.723899E-02 (1,6,2) 0.422374 (1,7,1) -0.316925
(1,6,2): (1,5,2) 0.154396 (1,6,1) -0.422374 (1,6,3) 1.29695 (1,7,2) -0.808580
(1,6,3): (1,5,3) 0.148728 (1,6,2) -1.29695 (1,6,4) 3.85024 (1,7,3) -2.45489
(1,6,4): (1,5,4) -0.957562 (1,6,3) -3.85024 (1,6,5) 12.6588 (1,7,4) -7.59777
(1,6,5): (1,5,5) -8.93927 (1,6,4) -12.6588 (1,6,6) 0.152576 (1,7,5) -24.9642
(1,6,6): (1,5,6) -8.01609 (1,6,5) -0.152576 (1,6,7) -0.141541 (1,7,6) -38.0508
(1,6,7): (1,5,7) -8.93768 (1,6,6) 0.141541 (1,6,8) -12.6336 (1,7,7) -24.9706
(1,6,8): (1,5,8) -0.950804 (1,6,7) 12.6336 (1,6,9) -3.78578 (1,7,8) -7.61808
(1,6,9): (1,5,9) 0.170077 (1,6,8) 3.78578 (1,6,10) -1.13176 (1,7,9) -2.52321
(1,6,10): (1,5,10) 0.213665 (1,6,9) 1.13176 (1,7,10) -1.03428
(1,7,1): (1,6,1) 0.316925 (1,7,2) -6.746365E-02 (1,8,1) -0.224886
(1,7,2): (1,6,2) 0.808580 (1,7,1) 6.746365E-02 (1,7,3) -0.332286 (1,8,2) -0.591720
(1,7,3): (1,6,3) 2.45489 (1,7,2) 0.332286 (1,7,4) -1.13617 (1,8,3) -1.84727
(1,7,4): (1,6,4) 7.59777 (1,7,3) 1.13617 (1,7,5) -3.31959 (1,8,4) -5.76785
(1,7,5): (1,6,5) 24.9642 (1,7,4) 3.31959 (1,7,6) -10.5241 (1,8,5) -18.1141
(1,7,6): (1,6,6) 38.0508 (1,7,5) 10.5241 (1,7,7) 10.5301 (1,8,6) -59.2775
(1,7,7): (1,6,7) 24.9706 (1,7,6) -10.5301 (1,7,8) 3.32923 (1,8,7) -18.1183
(1,7,8): (1,6,8) 7.61808 (1,7,7) -3.32923 (1,7,9) 1.15089 (1,8,8) -5.78162
(1,7,9): (1,6,9) 2.52321 (1,7,8) -1.15089 (1,7,10) 0.338625 (1,8,9) -1.89470
(1,7,10): (1,6,10) 1.03428 (1,7,9) -0.338625 (1,8,10) -0.752697
(1,8,1): (1,7,1) 0.224886 (1,8,2) -0.433721 (1,9,1) 0.108837
(1,8,2): (1,7,2) 0.591720 (1,8,1) 0.433721 (1,8,3) -1.58457 (1,9,2) 0.298474
(1,8,3): (1,7,3) 1.84727 (1,8,2) 1.58457 (1,8,4) -5.02821 (1,9,3) 1.01111
(1,8,4): (1,7,4) 5.76785 (1,8,3) 5.02821 (1,8,5) -15.3384 (1,9,4) 3.57350
(1,8,5): (1,7,5) 18.1141 (1,8,4) 15.3384 (1,8,6) -47.5859 (1,9,5) 13.0478
(1,8,6): (1,7,6) 59.2775 (1,8,5) 47.5859 (1,8,7) 47.5893 (1,9,6) 50.9761
(1,8,7): (1,7,7) 18.1183 (1,8,6) -47.5893 (1,8,8) 15.3382 (1,9,7) 13.0497
(1,8,8): (1,7,8) 5.78162 (1,8,7) -15.3382 (1,8,9) 5.00823 (1,9,8) 3.57979
(1,8,9): (1,7,9) 1.89470 (1,8,8) -5.00823 (1,8,10) 1.47588 (1,9,9) 1.03341
(1,8,10): (1,7,10) 0.752697 (1,8,9) -1.47588 (1,9,10) 0.376173
(1,9,1): (1,8,1) -0.108837 (1,9,2) -0.243827 (1,10,1) 0.248232
(1,9,2): (1,8,2) -0.298474 (1,9,1) 0.243827 (1,9,3) -0.867805 (1,10,2) 0.621369
(1,9,3): (1,8,3) -1.01111 (1,9,2) 0.867805 (1,9,4) -2.42736 (1,10,3) 1.83268
(1,9,4): (1,8,4) -3.57350 (1,9,3) 2.42736 (1,9,5) -5.63529 (1,10,4) 5.39842
(1,9,5): (1,8,5) -13.0478 (1,9,4) 5.63529 (1,9,6) -10.8711 (1,10,5) 16.2911
(1,9,6): (1,8,6) -50.9761 (1,9,5) 10.8711 (1,9,7) 10.8751 (1,10,6) 27.1580
(1,9,7): (1,8,7) -13.0497 (1,9,6) -10.8751 (1,9,8) 5.63978 (1,10,7) 16.2955
(1,9,8): (1,8,8) -3.57979 (1,9,7) -5.63978 (1,9,9) 2.42431 (1,10,8) 5.41384
(1,9,9): (1,8,9) -1.03341 (1,9,8) -2.42431 (1,9,10) 0.815696 (1,10,9) 1.88589
(1,9,10): (1,8,10) -0.376173 (1,9,9) -0.815696 (1,10,10) 0.796806
(1,10,1): (1,9,1) -0.248232 (1,10,2) 0.128078 (1,11,1) 0.110840
(1,10,2): (1,9,2) -0.621369 (1,10,1) -0.128078 (1,10,3) 0.333185 (1,11,2) 0.242631
(1,10,3): (1,9,3) -1.83268 (1,10,2) -0.333185 (1,10,4) 1.04956 (1,11,3) 0.526622
(1,10,4): (1,9,4) -5.39842 (1,10,3) -1.04956 (1,10,5) 4.47587 (1,11,4) 0.641144
(1,10,5): (1,9,5) -16.2911 (1,10,4) -4.47587 (1,10,6) -1.48585 (1,11,5) -1.99817
(1,10,6): (1,9,6) -27.1580 (1,10,5) 1.48585 (1,10,7) 1.49342 (1,11,6) -0.356753
(1,10,7): (1,9,7) -16.2955 (1,10,6) -1.49342 (1,10,8) -4.46021 (1,11,7) -1.99632
(1,10,8): (1,9,8) -5.41384 (1,10,7) 4.46021 (1,10,9) -1.01461 (1,11,8) 0.648491
(1,10,9): (1,9,9) -1.88589 (1,10,8) 1.01461 (1,10,10) -0.262698 (1,11,9) 0.551640
(1,10,10): (1,9,10) -0.796806 (1,10,9) 0.262698 (1,11,10) 0.320251
(1,11,1): (1,10,1) -0.110840 (1,11,2) 0.259892 (1,12,1) -4.345045E-02
(1,11,2): (1,10,2) -0.242631 (1,11,1) -0.259892 (1,11,3) 0.617426 (1,12,2) -8.464931E-02
(1,11,3): (1,10,3) -0.526622 (1,11,2) -0.617426 (1,11,4) 1.16463 (1,12,3) -0.218746
(1,11,4): (1,10,4) -0.641144 (1,11,3) -1.16463 (1,11,5) 1.78171 (1,12,4) -0.616621
(1,11,5): (1,10,5) 1.99817 (1,11,4) -1.78171 (1,11,6) 0.148296 (1,12,5) -1.54500
(1,11,6): (1,10,6) 0.356753 (1,11,5) -0.148296 (1,11,7) -0.138999 (1,12,6) -1.44420
(1,11,7): (1,10,7) 1.99632 (1,11,6) 0.138999 (1,11,8) -1.76085 (1,12,7) -1.54633
(1,11,8): (1,10,8) -0.648491 (1,11,7) 1.76085 (1,11,9) -1.11186 (1,12,8) -0.620567
(1,11,9): (1,10,9) -0.551640 (1,11,8) 1.11186 (1,11,10) -0.493958 (1,12,9) -0.229247
(1,11,10): (1,10,10) -0.320251 (1,11,9) 0.493958 (1,12,10) -0.111230
(1,12,1): (1,11,1) 4.345045E-02 (1,12,2) 0.218622 (1,13,1) -0.100169
(1,12,2): (1,11,2) 8.464931E-02 (1,12,1) -0.218622 (1,12,3) 0.482809 (1,13,2) -0.185155
(1,12,3): (1,11,3) 0.218746 (1,12,2) -0.482809 (1,12,4) 0.764682 (1,13,3) -0.386029
(1,12,4): (1,11,4) 0.616621 (1,12,3) -0.764682 (1,12,5) 0.851323 (1,13,4) -0.740599
(1,12,5): (1,11,5) 1.54500 (1,12,4) -0.851323 (1,12,6) 0.247869 (1,13,5) -1.18746
(1,12,6): (1,11,6) 1.44420 (1,12,5) -0.247869 (1,12,7) -0.239879 (1,13,6) -1.28700
(1,12,7): (1,11,7) 1.54633 (1,12,6) 0.239879 (1,12,8) -0.833278 (1,13,7) -1.19014
(1,12,8): (1,11,8) 0.620567 (1,12,7) 0.833278 (1,12,9) -0.718715 (1,13,8) -0.749324
(1,12,9): (1,11,9) 0.229247 (1,12,8) 0.718715 (1,12,10) -0.375638 (1,13,9) -0.410626
(1,12,10): (1,11,10) 0.111230 (1,12,9) 0.375638 (1,13,10) -0.248544
(1,13,1): (1,12,1) 0.100169 (1,13,2) 0.133608 (1,14,1) -8.351381E-02
(1,13,2): (1,12,2) 0.185155 (1,13,1) -0.133608 (1,13,3) 0.281745 (1,14,2) -0.148128
(1,13,3): (1,12,3) 0.386029 (1,13,2) -0.281745 (1,13,4) 0.410030 (1,14,3) -0.288937
(1,13,4): (1,12,4) 0.740599 (1,13,3) -0.410030 (1,13,5) 0.405867 (1,14,4) -0.503842
(1,13,5): (1,12,5) 1.18746 (1,13,4) -0.405867 (1,13,6) 0.149286 (1,14,5) -0.727037
(1,13,6): (1,12,6) 1.28700 (1,13,5) -0.149286 (1,13,7) -0.143951 (1,14,6) -0.804479
(1,13,7): (1,12,7) 1.19014 (1,13,6) 0.143951 (1,13,8) -0.393940 (1,14,7) -0.729323
(1,13,8): (1,12,8) 0.749324 (1,13,7) 0.393940 (1,13,9) -0.380116 (1,14,8) -0.511319
(1,13,9): (1,12,9) 0.410626 (1,13,8) 0.380116 (1,13,10) -0.213611 (1,14,9) -0.309775
(1,13,10): (1,12,10) 0.248544 (1,13,9) 0.213611 (1,14,10) -0.200469
(1,14,1): (1,13,1) 8.351381E-02 (1,14,2) 6.900334E-02 (1,15,1) -4.243432E-02
(1,14,2): (1,13,2) 0.148128 (1,14,1) -6.900334E-02 (1,14,3) 0.140945 (1,15,2) -7.332033E-02
(1,14,3): (1,13,3) 0.288937 (1,14,2) -0.140945 (1,14,4) 0.195322 (1,15,3) -0.138194
(1,14,4): (1,13,4) 0.503842 (1,14,3) -0.195322 (1,14,5) 0.183363 (1,15,4) -0.231469
(1,14,5): (1,13,5) 0.727037 (1,14,4) -0.183363 (1,14,6) 7.232914E-02 (1,15,5) -0.321920
(1,14,6): (1,13,6) 0.804479 (1,14,5) -7.232914E-02 (1,14,7) -6.926979E-02 (1,15,6) -0.356784
(1,14,7): (1,13,7) 0.729323 (1,14,6) 6.926979E-02 (1,14,8) -0.176641 (1,15,7) -0.323112
(1,14,8): (1,13,8) 0.511319 (1,14,7) 0.176641 (1,14,9) -0.178830 (1,15,8) -0.235348
(1,14,9): (1,13,9) 0.309775 (1,14,8) 0.178830 (1,14,10) -0.104409 (1,15,9) -0.148879
(1,14,10): (1,13,10) 0.200469 (1,14,9) 0.104409 (1,15,10) -9.965307E-02
(1,15,1): (1,14,1) 4.243432E-02 (1,15,2) 3.811865E-02
(1,15,2): (1,14,2) 7.332033E-02 (1,15,1) -3.811865E-02 (1,15,3) 7.606988E-02
(1,15,3): (1,14,3) 0.138194 (1,15,2) -7.606988E-02 (1,15,4) 0.102081
(1,15,4): (1,14,4) 0.231469 (1,15,3) -0.102081 (1,15,5) 9.303468E-02
(1,15,5): (1,14,5) 0.321920 (1,15,4) -9.303468E-02 (1,15,6) 3.756276E-02
(1,15,6): (1,14,6) 0.356784 (1,15,5) -3.756276E-02 (1,15,7) -3.569313E-02
(1,15,7): (1,14,7) 0.323112 (1,15,6) 3.569313E-02 (1,15,8) -8.900309E-02
(1,15,8): (1,14,8) 0.235348 (1,15,7) 8.900309E-02 (1,15,9) -9.240834E-02
(1,15,9): (1,14,9) 0.148879 (1,15,8) 9.240834E-02 (1,15,10) -5.520467E-02
(1,15,10): (1,14,10) 9.965307E-02 (1,15,9) 5.520467E-02

 WEL PACKAGE (WEL-1) FLOW RATES   PERIOD      2   STEP       58
 ----------------------------------------------------------------------------------------
   NUMBER   CELLID                    RATE       NAME                                    
 ----------------------------------------------------------------------------------------
     1      (1,8,6)              -205.74138      WEL                                     
 ----------------------------------------------------------------------------------------




 API PACKAGE (MAR) FLOW RATES   PERIOD      2   STEP       58
 -----------------------------------------------
   NUMBER   CELLID                    RATE      
 -----------------------------------------------
     1      (1,6,5)               46.666667     
     2      (1,6,6)               46.666667     
     3      (1,6,7)               46.666667     
     4      (1,10,5)              21.913792     
     5      (1,10,6)              21.913792     
     6      (1,10,7)              21.913792     
 -----------------------------------------------



1
  HEAD IN LAYER   1 AT END OF TIME STEP  58 IN STRESS PERIOD    2
  ---------------------------------------------------------------------------

            1           2           3           4           5           6           7           8           9          10
 ........................................................................................................................
   1   7.1452E-03  1.1893E-02  2.1578E-02  3.4975E-02  4.7565E-02  5.2716E-02  4.7778E-02  3.5655E-02  2.3396E-02  1.6228E-02
   2   1.2536E-02  2.1609E-02  4.0769E-02  6.8569E-02  9.5955E-02  0.1070      9.6310E-02  6.9718E-02  4.3917E-02  2.9344E-02
   3   2.3694E-02  4.2594E-02  8.4382E-02  0.1492      0.2180      0.2446      0.2187      0.1513      9.0221E-02  5.7459E-02
   4   3.8652E-02  7.2908E-02  0.1537      0.2927      0.4608      0.5179      0.4617      0.2959      0.1630      9.7503E-02
   5   4.8966E-02  9.7469E-02  0.2238      0.4828      0.8924      0.9854      0.8935      0.4867      0.2352      0.1290    
   6   4.0285E-02  8.2178E-02  0.2092      0.5734       1.659       1.672       1.660      0.5766      0.2186      0.1079    
   7   8.7196E-03  1.9791E-03 -3.1243E-02 -0.1452     -0.4821      -1.588     -0.4815     -0.1437     -2.8303E-02  5.5406E-03
   8  -1.3749E-02 -5.7181E-02 -0.2165     -0.7305      -2.385      -8.634      -2.385     -0.7303     -0.2183     -6.9687E-02
   9  -2.8626E-03 -2.7252E-02 -0.1143     -0.3598     -0.9444      -2.145     -0.9440     -0.3590     -0.1138     -3.1950E-02
  10   2.1906E-02  3.4670E-02  6.7764E-02  0.1710      0.5935      0.4532      0.5942      0.1732      7.3434E-02  4.7356E-02
  11   3.2954E-02  5.8791E-02  0.1198      0.2336      0.4048      0.4191      0.4057      0.2365      0.1279      7.9129E-02
  12   2.8623E-02  5.0376E-02  9.8187E-02  0.1734      0.2564      0.2805      0.2571      0.1759      0.1053      6.8093E-02
  13   1.8635E-02  3.1953E-02  5.9960E-02  0.1006      0.1406      0.1553      0.1411      0.1023      6.4631E-02  4.3407E-02
  14   1.0299E-02  1.7187E-02  3.1238E-02  5.0672E-02  6.8883E-02  7.6061E-02  6.9186E-02  5.1644E-02  3.3853E-02  2.3447E-02
  15   6.0599E-03  9.8680E-03  1.7462E-02  2.7642E-02  3.6911E-02  4.0652E-02  3.7097E-02  2.8230E-02  1.9015E-02  1.3505E-02

 HEAD WILL BE SAVED ON UNIT 1043 AT END OF TIME STEP   58, STRESS PERIOD    2


  VOLUME BUDGET FOR ENTIRE MODEL AT END OF TIME STEP   58, STRESS PERIOD   2
  ---------------------------------------------------------------------------------------------------

     CUMULATIVE VOLUME      L**3       RATES FOR THIS TIME STEP      L**3/T          PACKAGE NAME    
     ------------------                 ------------------------                     ----------------

           IN:                                      IN:
           ---                                      ---
              STO-SS =          22.4959                STO-SS =       1.7948E-02     STORAGE                          
              STO-SY =       54138.8679                STO-SY =          37.1909     STORAGE                          
                 WEL =           0.0000                   WEL =           0.0000     WEL-1                            
                 API =      135204.8816                   API =         205.7414     MAR                              
                 CHD =       2.8247E-08                   CHD =           0.0000     CHD_0                            

            TOTAL IN =      189366.2455              TOTAL IN =         242.9502

          OUT:                                     OUT:
          ----                                     ----
              STO-SS =          28.1092                STO-SS =       1.9058E-02     STORAGE                          
              STO-SY =       54133.2547                STO-SY =          37.1897     STORAGE                          
                 WEL =      135204.8816                   WEL =         205.7414     WEL-1                            
                 API =           0.0000                   API =           0.0000     MAR                              
                 CHD =       3.0388E-08                   CHD =           0.0000     CHD_0                            

           TOTAL OUT =      189366.2454             TOTAL OUT =         242.9502

            IN - OUT =       1.0648E-06              IN - OUT =       7.1465E-09

 PERCENT DISCREPANCY =           0.00     PERCENT DISCREPANCY =           0.00




         TIME SUMMARY AT END OF TIME STEP   58 IN STRESS PERIOD    2
                    SECONDS     MINUTES      HOURS       DAYS        YEARS
                    -----------------------------------------------------------
   TIME STEP LENGTH 8.64000E+05  14400.      240.00      10.000     2.73785E-02
 STRESS PERIOD TIME 5.01120E+07 8.35200E+05  13920.      580.00      1.5880    
         TOTAL TIME 5.01984E+07 8.36640E+05  13944.      581.00      1.5907    


end timestep


start timestep kper="2" kstp="59" mode="normal"

 UBDSV1 SAVING           STO-SS ON UNIT   1042 AT TIME STEP     59, STRESS PERIOD      2
 UBDSV1 SAVING           STO-SY ON UNIT   1042 AT TIME STEP     59, STRESS PERIOD      2
 UBDSV1 SAVING     FLOW-JA-FACE ON UNIT   1042 AT TIME STEP     59, STRESS PERIOD      2
 UBDSV06 SAVING       DATA-SPDIS IN MODEL GWF              PACKAGE NPF             CONNECTED TO MODEL GWF              PACKAGE NPF              ON UNIT   1042 AT TIME STEP     59, STRESS PERIOD      2
 UBDSV06 SAVING              WEL IN MODEL GWF              PACKAGE GWF             CONNECTED TO MODEL GWF              PACKAGE WEL-1            ON UNIT   1042 AT TIME STEP     59, STRESS PERIOD      2
 UBDSV06 SAVING              API IN MODEL GWF              PACKAGE GWF             CONNECTED TO MODEL GWF              PACKAGE MAR              ON UNIT   1042 AT TIME STEP     59, STRESS PERIOD      2
 UBDSV06 SAVING              CHD IN MODEL GWF              PACKAGE GWF             CONNECTED TO MODEL GWF              PACKAGE CHD_0            ON UNIT   1042 AT TIME STEP     59, STRESS PERIOD      2

    CALCULATED INTERCELL FLOW FOR PERIOD 2 STEP 59
(1,1,1): (1,1,2) 4.983675E-02 (1,2,1) 5.635202E-02
(1,1,2): (1,1,1) -4.983675E-02 (1,1,3) 0.101277 (1,2,2) 0.100764
(1,1,3): (1,1,2) -0.101277 (1,1,4) 0.139509 (1,2,3) 0.197878
(1,1,4): (1,1,3) -0.139509 (1,1,5) 0.130718 (1,2,4) 0.345524
(1,1,5): (1,1,4) -0.130718 (1,1,6) 5.348612E-02 (1,2,5) 0.497516
(1,1,6): (1,1,5) -5.348612E-02 (1,1,7) -5.112496E-02 (1,2,6) 0.558491
(1,1,7): (1,1,6) 5.112496E-02 (1,1,8) -0.125639 (1,2,7) 0.499066
(1,1,8): (1,1,7) 0.125639 (1,1,9) -0.127270 (1,2,8) 0.350572
(1,1,9): (1,1,8) 0.127270 (1,1,10) -7.455685E-02 (1,2,9) 0.211943
(1,1,10): (1,1,9) 7.455685E-02 (1,2,10) 0.136259
(1,2,1): (1,1,1) -5.635202E-02 (1,2,2) 9.424543E-02 (1,3,1) 0.115808
(1,2,2): (1,1,2) -0.100764 (1,2,1) -9.424543E-02 (1,2,3) 0.198391 (1,3,2) 0.216264
(1,2,3): (1,1,3) -0.197878 (1,2,2) -0.198391 (1,2,4) 0.287071 (1,3,3) 0.448049
(1,2,4): (1,1,4) -0.345524 (1,2,3) -0.287071 (1,2,5) 0.282392 (1,3,4) 0.830070
(1,2,5): (1,1,5) -0.497516 (1,2,4) -0.282392 (1,2,6) 0.114198 (1,3,5) 1.26098
(1,2,6): (1,1,6) -0.558491 (1,2,5) -0.114198 (1,2,7) -0.110292 (1,3,6) 1.42447
(1,2,7): (1,1,7) -0.499066 (1,2,6) 0.110292 (1,2,8) -0.273807 (1,3,7) 1.26405
(1,2,8): (1,1,8) -0.350572 (1,2,7) 0.273807 (1,2,9) -0.265784 (1,3,8) 0.840121
(1,2,9): (1,1,9) -0.211943 (1,2,8) 0.265784 (1,2,10) -0.150195 (1,3,9) 0.476555
(1,2,10): (1,1,10) -0.136259 (1,2,9) 0.150195 (1,3,10) 0.290454
(1,3,1): (1,2,1) -0.115808 (1,3,2) 0.194680 (1,4,1) 0.153616
(1,3,2): (1,2,2) -0.216264 (1,3,1) -0.194680 (1,3,3) 0.430136 (1,4,2) 0.309833
(1,3,3): (1,2,3) -0.448049 (1,3,2) -0.430136 (1,3,4) 0.668498 (1,4,3) 0.709847
(1,3,4): (1,2,4) -0.830070 (1,3,3) -0.668498 (1,3,5) 0.711066 (1,4,4) 1.48378
(1,3,5): (1,2,5) -1.26098 (1,3,4) -0.711066 (1,3,6) 0.275936 (1,4,5) 2.54719
(1,3,6): (1,2,6) -1.42447 (1,3,5) -0.275936 (1,3,7) -0.268981 (1,4,6) 2.88225
(1,3,7): (1,2,7) -1.26405 (1,3,6) 0.268981 (1,3,8) -0.695463 (1,4,7) 2.55107
(1,3,8): (1,2,8) -0.840121 (1,3,7) 0.695463 (1,3,9) -0.628610 (1,4,8) 1.49640
(1,3,9): (1,2,9) -0.476555 (1,3,8) 0.628610 (1,3,10) -0.336040 (1,4,9) 0.746605
(1,3,10): (1,2,10) -0.290454 (1,3,9) 0.336040 (1,4,10) 0.410631
(1,4,1): (1,3,1) -0.153616 (1,4,2) 0.350960 (1,5,1) 0.103541
(1,4,2): (1,3,2) -0.309833 (1,4,1) -0.350960 (1,4,3) 0.830615 (1,5,2) 0.246917
(1,4,3): (1,3,3) -0.709847 (1,4,2) -0.830615 (1,4,4) 1.44213 (1,5,3) 0.713057
(1,4,4): (1,3,4) -1.48378 (1,4,3) -1.44213 (1,4,5) 1.76708 (1,5,4) 1.98638
(1,4,5): (1,3,5) -2.54719 (1,4,4) -1.76708 (1,4,6) 0.604386 (1,5,5) 4.69184
(1,4,6): (1,3,6) -2.88225 (1,4,5) -0.604386 (1,4,7) -0.593602 (1,5,6) 5.12578
(1,4,7): (1,3,7) -2.55107 (1,4,6) 0.593602 (1,4,8) -1.74252 (1,5,7) 4.69436
(1,4,8): (1,3,8) -1.49640 (1,4,7) 1.74252 (1,4,9) -1.37758 (1,5,8) 1.99404
(1,4,9): (1,3,9) -0.746605 (1,4,8) 1.37758 (1,4,10) -0.671772 (1,5,9) 0.736147
(1,4,10): (1,3,10) -0.410631 (1,4,9) 0.671772 (1,5,10) 0.317208
(1,5,1): (1,4,1) -0.103541 (1,5,2) 0.494683 (1,6,1) -9.265273E-02
(1,5,2): (1,4,2) -0.246917 (1,5,1) -0.494683 (1,5,3) 1.29935 (1,6,2) -0.163424
(1,5,3): (1,4,3) -0.713057 (1,5,2) -1.29935 (1,5,4) 2.72387 (1,6,3) -0.164464
(1,5,4): (1,4,4) -1.98638 (1,5,3) -2.72387 (1,5,5) 4.46757 (1,6,4) 0.934117
(1,5,5): (1,4,5) -4.69184 (1,5,4) -4.46757 (1,5,6) 1.02496 (1,6,5) 8.90967
(1,5,6): (1,4,6) -5.12578 (1,5,5) -1.02496 (1,5,7) -1.01168 (1,6,6) 7.98646
(1,5,7): (1,4,7) -4.69436 (1,5,6) 1.01168 (1,5,8) -4.43716 (1,6,7) 8.90792
(1,5,8): (1,4,8) -1.99404 (1,5,7) 4.43716 (1,5,9) -2.64278 (1,6,8) 0.926838
(1,5,9): (1,4,9) -0.736147 (1,5,8) 2.64278 (1,5,10) -1.09212 (1,6,9) -0.187222
(1,5,10): (1,4,10) -0.317208 (1,5,9) 1.09212 (1,6,10) -0.226087
(1,6,1): (1,5,1) 9.265273E-02 (1,6,2) 0.423683 (1,7,1) -0.325375
(1,6,2): (1,5,2) 0.163424 (1,6,1) -0.423683 (1,6,3) 1.29832 (1,7,2) -0.822007
(1,6,3): (1,5,3) 0.164464 (1,6,2) -1.29832 (1,6,4) 3.85100 (1,7,3) -2.47726
(1,6,4): (1,5,4) -0.934117 (1,6,3) -3.85100 (1,6,5) 12.6605 (1,7,4) -7.62972
(1,6,5): (1,5,5) -8.90967 (1,6,4) -12.6605 (1,6,6) 0.155387 (1,7,5) -25.0012
(1,6,6): (1,5,6) -7.98646 (1,6,5) -0.155387 (1,6,7) -0.143791 (1,7,6) -38.0825
(1,6,7): (1,5,7) -8.90792 (1,6,6) 0.143791 (1,6,8) -12.6343 (1,7,7) -25.0079
(1,6,8): (1,5,8) -0.926838 (1,6,7) 12.6343 (1,6,9) -3.78512 (1,7,8) -7.65088
(1,6,9): (1,5,9) 0.187222 (1,6,8) 3.78512 (1,6,10) -1.13134 (1,7,9) -2.54779
(1,6,10): (1,5,10) 0.226087 (1,6,9) 1.13134 (1,7,10) -1.05281
(1,7,1): (1,6,1) 0.325375 (1,7,2) -7.105858E-02 (1,8,1) -0.231148
(1,7,2): (1,6,2) 0.822007 (1,7,1) 7.105858E-02 (1,7,3) -0.339486 (1,8,2) -0.602266
(1,7,3): (1,6,3) 2.47726 (1,7,2) 0.339486 (1,7,4) -1.14349 (1,8,3) -1.86615
(1,7,4): (1,6,4) 7.62972 (1,7,3) 1.14349 (1,7,5) -3.31884 (1,8,4) -5.79646
(1,7,5): (1,6,5) 25.0012 (1,7,4) 3.31884 (1,7,6) -10.5138 (1,8,5) -18.1447
(1,7,6): (1,6,6) 38.0825 (1,7,5) 10.5138 (1,7,7) 10.5202 (1,8,6) -59.2777
(1,7,7): (1,6,7) 25.0079 (1,7,6) -10.5202 (1,7,8) 3.32878 (1,8,7) -18.1491
(1,7,8): (1,6,8) 7.65088 (1,7,7) -3.32878 (1,7,9) 1.15824 (1,8,8) -5.81083
(1,7,9): (1,6,9) 2.54779 (1,7,8) -1.15824 (1,7,10) 0.344711 (1,8,9) -1.91518
(1,7,10): (1,6,10) 1.05281 (1,7,9) -0.344711 (1,8,10) -0.767095
(1,8,1): (1,7,1) 0.231148 (1,8,2) -0.441584 (1,9,1) 0.108472
(1,8,2): (1,7,2) 0.602266 (1,8,1) 0.441584 (1,8,3) -1.60004 (1,9,2) 0.296223
(1,8,3): (1,7,3) 1.86615 (1,8,2) 1.60004 (1,8,4) -5.04471 (1,9,3) 1.00300
(1,8,4): (1,7,4) 5.79646 (1,8,3) 5.04471 (1,8,5) -15.3356 (1,9,4) 3.55111
(1,8,5): (1,7,5) 18.1447 (1,8,4) 15.3356 (1,8,6) -47.5246 (1,9,5) 12.9935
(1,8,6): (1,7,6) 59.2777 (1,8,5) 47.5246 (1,8,7) 47.5282 (1,9,6) 50.8434
(1,8,7): (1,7,7) 18.1491 (1,8,6) -47.5282 (1,8,8) 15.3353 (1,9,7) 12.9955
(1,8,8): (1,7,8) 5.81083 (1,8,7) -15.3353 (1,8,9) 5.02371 (1,9,8) 3.55745
(1,8,9): (1,7,9) 1.91518 (1,8,8) -5.02371 (1,8,10) 1.48792 (1,9,9) 1.02529
(1,8,10): (1,7,10) 0.767095 (1,8,9) -1.48792 (1,9,10) 0.373428
(1,9,1): (1,8,1) -0.108472 (1,9,2) -0.253559 (1,10,1) 0.252872
(1,9,2): (1,8,2) -0.296223 (1,9,1) 0.253559 (1,9,3) -0.888998 (1,10,2) 0.627438
(1,9,3): (1,8,3) -1.00300 (1,9,2) 0.888998 (1,9,4) -2.45729 (1,10,3) 1.83911
(1,9,4): (1,8,4) -3.55111 (1,9,3) 2.45729 (1,9,5) -5.65951 (1,10,4) 5.39705
(1,9,5): (1,8,5) -12.9935 (1,9,4) 5.65951 (1,9,6) -10.8628 (1,10,5) 16.2553
(1,9,6): (1,8,6) -50.8434 (1,9,5) 10.8628 (1,9,7) 10.8670 (1,10,6) 27.0965
(1,9,7): (1,8,7) -12.9955 (1,9,6) -10.8670 (1,9,8) 5.66391 (1,10,7) 16.2599
(1,9,8): (1,8,8) -3.55745 (1,9,7) -5.66391 (1,9,9) 2.45318 (1,10,8) 5.41298
(1,9,9): (1,8,9) -1.02529 (1,9,8) -2.45318 (1,9,10) 0.833008 (1,10,9) 1.89358
(1,9,10): (1,8,10) -0.373428 (1,9,9) -0.833008 (1,10,10) 0.805452
(1,10,1): (1,9,1) -0.252872 (1,10,2) 0.119764 (1,11,1) 0.116626
(1,10,2): (1,9,2) -0.627438 (1,10,1) -0.119764 (1,10,3) 0.312395 (1,11,2) 0.252751
(1,10,3): (1,9,3) -1.83911 (1,10,2) -0.312395 (1,10,4) 1.01225 (1,11,3) 0.545830
(1,10,4): (1,9,4) -5.39705 (1,10,3) -1.01225 (1,10,5) 4.41970 (1,11,4) 0.674945
(1,10,5): (1,9,5) -16.2553 (1,10,4) -4.41970 (1,10,6) -1.49874 (1,11,5) -1.93726
(1,10,6): (1,9,6) -27.0965 (1,10,5) 1.49874 (1,10,7) 1.50660 (1,11,6) -0.293908
(1,10,7): (1,9,7) -16.2599 (1,10,6) -1.50660 (1,10,8) -4.40379 (1,11,7) -1.93526
(1,10,8): (1,9,8) -5.41298 (1,10,7) 4.40379 (1,10,9) -0.977586 (1,11,8) 0.682798
(1,10,9): (1,9,9) -1.89358 (1,10,8) 0.977586 (1,10,10) -0.244445 (1,11,9) 0.572294
(1,10,10): (1,9,10) -0.805452 (1,10,9) 0.244445 (1,11,10) 0.334026
(1,11,1): (1,10,1) -0.116626 (1,11,2) 0.255893 (1,12,1) -4.046520E-02
(1,11,2): (1,10,2) -0.252751 (1,11,1) -0.255893 (1,11,3) 0.605644 (1,12,2) -7.779900E-02
(1,11,3): (1,10,3) -0.545830 (1,11,2) -0.605644 (1,11,4) 1.14191 (1,12,3) -0.202944
(1,11,4): (1,10,4) -0.674945 (1,11,3) -1.14191 (1,11,5) 1.75342 (1,12,4) -0.586112
(1,11,5): (1,10,5) 1.93726 (1,11,4) -1.75342 (1,11,6) 0.138369 (1,12,5) -1.49683
(1,11,6): (1,10,6) 0.293908 (1,11,5) -0.138369 (1,11,7) -0.128640 (1,12,6) -1.39043
(1,11,7): (1,10,7) 1.93526 (1,11,6) 0.128640 (1,11,8) -1.73196 (1,12,7) -1.49813
(1,11,8): (1,10,8) -0.682798 (1,11,7) 1.73196 (1,11,9) -1.08850 (1,12,8) -0.589905
(1,11,9): (1,10,9) -0.572294 (1,11,8) 1.08850 (1,11,10) -0.482506 (1,12,9) -0.212782
(1,11,10): (1,10,10) -0.334026 (1,11,9) 0.482506 (1,12,10) -0.102147
(1,12,1): (1,11,1) 4.046520E-02 (1,12,2) 0.218494 (1,13,1) -0.100578
(1,12,2): (1,11,2) 7.779900E-02 (1,12,1) -0.218494 (1,12,3) 0.480009 (1,13,2) -0.183824
(1,12,3): (1,11,3) 0.202944 (1,12,2) -0.480009 (1,12,4) 0.756721 (1,13,3) -0.380115
(1,12,4): (1,11,4) 0.586112 (1,12,3) -0.756721 (1,12,5) 0.840564 (1,13,4) -0.726582
(1,12,5): (1,11,5) 1.49683 (1,12,4) -0.840564 (1,12,6) 0.243519 (1,13,5) -1.16420
(1,12,6): (1,11,6) 1.39043 (1,12,5) -0.243519 (1,12,7) -0.235074 (1,13,6) -1.26012
(1,12,7): (1,11,7) 1.49813 (1,12,6) 0.235074 (1,12,8) -0.821789 (1,13,7) -1.16697
(1,12,8): (1,11,8) 0.589905 (1,12,7) 0.821789 (1,12,9) -0.709588 (1,13,8) -0.735495
(1,12,9): (1,11,9) 0.212782 (1,12,8) 0.709588 (1,12,10) -0.371582 (1,13,9) -0.404928
(1,12,10): (1,11,10) 0.102147 (1,12,9) 0.371582 (1,13,10) -0.247013
(1,13,1): (1,12,1) 0.100578 (1,13,2) 0.135219 (1,14,1) -8.542482E-02
(1,13,2): (1,12,2) 0.183824 (1,13,1) -0.135219 (1,13,3) 0.283527 (1,14,2) -0.149868
(1,13,3): (1,12,3) 0.380115 (1,13,2) -0.283527 (1,13,4) 0.410154 (1,14,3) -0.289640
(1,13,4): (1,12,4) 0.726582 (1,13,3) -0.410154 (1,13,5) 0.404270 (1,14,4) -0.502019
(1,13,5): (1,12,5) 1.16420 (1,13,4) -0.404270 (1,13,6) 0.148502 (1,14,5) -0.722009
(1,13,6): (1,12,6) 1.26012 (1,13,5) -0.148502 (1,13,7) -0.142800 (1,14,6) -0.798087
(1,13,7): (1,12,7) 1.16697 (1,13,6) 0.142800 (1,13,8) -0.391714 (1,14,7) -0.724411
(1,13,8): (1,12,8) 0.735495 (1,13,7) 0.391714 (1,13,9) -0.379103 (1,14,8) -0.509792
(1,13,9): (1,12,9) 0.404928 (1,13,8) 0.379103 (1,13,10) -0.213718 (1,14,9) -0.311052
(1,13,10): (1,12,10) 0.247013 (1,13,9) 0.213718 (1,14,10) -0.203049
(1,14,1): (1,13,1) 8.542482E-02 (1,14,2) 7.078557E-02 (1,15,1) -4.387786E-02
(1,14,2): (1,13,2) 0.149868 (1,14,1) -7.078557E-02 (1,14,3) 0.143764 (1,15,2) -7.501632E-02
(1,14,3): (1,13,3) 0.289640 (1,14,2) -0.143764 (1,14,4) 0.197965 (1,15,3) -0.140084
(1,14,4): (1,13,4) 0.502019 (1,14,3) -0.197965 (1,14,5) 0.184953 (1,15,4) -0.233131
(1,14,5): (1,13,5) 0.722009 (1,14,4) -0.184953 (1,14,6) 7.289685E-02 (1,15,5) -0.323009
(1,14,6): (1,13,6) 0.798087 (1,14,5) -7.289685E-02 (1,14,7) -6.958550E-02 (1,15,6) -0.357600
(1,14,7): (1,13,7) 0.724411 (1,14,6) 6.958550E-02 (1,14,8) -0.177783 (1,15,7) -0.324274
(1,14,8): (1,13,8) 0.509792 (1,14,7) 0.177783 (1,14,9) -0.180616 (1,15,8) -0.237206
(1,14,9): (1,13,9) 0.311052 (1,14,8) 0.180616 (1,14,10) -0.105818 (1,15,9) -0.151182
(1,14,10): (1,13,10) 0.203049 (1,14,9) 0.105818 (1,15,10) -0.102068
(1,15,1): (1,14,1) 4.387786E-02 (1,15,2) 3.964841E-02
(1,15,2): (1,14,2) 7.501632E-02 (1,15,1) -3.964841E-02 (1,15,3) 7.869362E-02
(1,15,3): (1,14,3) 0.140084 (1,15,2) -7.869362E-02 (1,15,4) 0.104951
(1,15,4): (1,14,4) 0.233131 (1,15,3) -0.104951 (1,15,5) 9.519608E-02
(1,15,5): (1,14,5) 0.323009 (1,15,4) -9.519608E-02 (1,15,6) 3.840254E-02
(1,15,6): (1,14,6) 0.357600 (1,15,5) -3.840254E-02 (1,15,7) -3.635341E-02
(1,15,7): (1,14,7) 0.324274 (1,15,6) 3.635341E-02 (1,15,8) -9.084018E-02
(1,15,8): (1,14,8) 0.237206 (1,15,7) 9.084018E-02 (1,15,9) -9.464006E-02
(1,15,9): (1,14,9) 0.151182 (1,15,8) 9.464006E-02 (1,15,10) -5.672710E-02
(1,15,10): (1,14,10) 0.102068 (1,15,9) 5.672710E-02

 WEL PACKAGE (WEL-1) FLOW RATES   PERIOD      2   STEP       59
 ----------------------------------------------------------------------------------------
   NUMBER   CELLID                    RATE       NAME                                    
 ----------------------------------------------------------------------------------------
     1      (1,8,6)              -205.47612      WEL                                     
 ----------------------------------------------------------------------------------------




 API PACKAGE (MAR) FLOW RATES   PERIOD      2   STEP       59
 -----------------------------------------------
   NUMBER   CELLID                    RATE      
 -----------------------------------------------
     1      (1,6,5)               46.666667     
     2      (1,6,6)               46.666667     
     3      (1,6,7)               46.666667     
     4      (1,10,5)              21.825374     
     5      (1,10,6)              21.825374     
     6      (1,10,7)              21.825374     
 -----------------------------------------------



1
  HEAD IN LAYER   1 AT END OF TIME STEP  59 IN STRESS PERIOD    2
  ---------------------------------------------------------------------------

            1           2           3           4           5           6           7           8           9          10
 ........................................................................................................................
   1   7.6759E-03  1.2653E-02  2.2758E-02  3.6658E-02  4.9665E-02  5.4985E-02  4.9900E-02  3.7398E-02  2.4719E-02  1.7282E-02
   2   1.3304E-02  2.2707E-02  4.2462E-02  7.0967E-02  9.8929E-02  0.1102      9.9316E-02  7.2204E-02  4.5817E-02  3.0866E-02
   3   2.4856E-02  4.4238E-02  8.6881E-02  0.1527      0.2223      0.2492      0.2230      0.1549      9.3033E-02  5.9739E-02
   4   4.0156E-02  7.4991E-02  0.1568      0.2968      0.4657      0.5231      0.4667      0.3002      0.1665      0.1004    
   5   5.0458E-02  9.9439E-02  0.2265      0.4863      0.8963      0.9895      0.8975      0.4903      0.2384      0.1317    
   6   4.1239E-02  8.3258E-02  0.2104      0.5746       1.660       1.674       1.661      0.5779      0.2201      0.1094    
   7   8.8354E-03  1.7358E-03 -3.2207E-02 -0.1469     -0.4838      -1.589     -0.4832     -0.1454     -2.9207E-02  5.2458E-03
   8  -1.4259E-02 -5.8480E-02 -0.2194     -0.7352      -2.390      -8.636      -2.390     -0.7350     -0.2213     -7.1424E-02
   9  -3.4081E-03 -2.8773E-02 -0.1179     -0.3666     -0.9541      -2.155     -0.9537     -0.3658     -0.1175     -3.3953E-02
  10   2.1824E-02  3.3760E-02  6.4798E-02  0.1644      0.5820      0.4404      0.5828      0.1667      7.0495E-02  4.6221E-02
  11   3.3448E-02  5.8887E-02  0.1187      0.2304      0.3990      0.4123      0.3999      0.2334      0.1270      7.9361E-02
  12   2.9415E-02  5.1153E-02  9.8685E-02  0.1731      0.2550      0.2787      0.2559      0.1757      0.1060      6.9226E-02
  13   1.9386E-02  3.2864E-02  6.1045E-02  0.1016      0.1415      0.1561      0.1421      0.1034      6.5927E-02  4.4695E-02
  14   1.0860E-02  1.7926E-02  3.2256E-02  5.1951E-02  7.0317E-02  7.7550E-02  7.0645E-02  5.2992E-02  3.5025E-02  2.4480E-02
  15   6.4774E-03  1.0438E-02  1.8293E-02  2.8758E-02  3.8241E-02  4.2066E-02  3.8445E-02  2.9396E-02  1.9960E-02  1.4299E-02

 HEAD WILL BE SAVED ON UNIT 1043 AT END OF TIME STEP   59, STRESS PERIOD    2


  VOLUME BUDGET FOR ENTIRE MODEL AT END OF TIME STEP   59, STRESS PERIOD   2
  ---------------------------------------------------------------------------------------------------

     CUMULATIVE VOLUME      L**3       RATES FOR THIS TIME STEP      L**3/T          PACKAGE NAME    
     ------------------                 ------------------------                     ----------------

           IN:                                      IN:
           ---                                      ---
              STO-SS =          22.6732                STO-SS =       1.7728E-02     STORAGE                          
              STO-SY =       54506.1491                STO-SY =          36.7281     STORAGE                          
                 WEL =           0.0000                   WEL =           0.0000     WEL-1                            
                 API =      137259.6429                   API =         205.4761     MAR                              
                 CHD =       2.8247E-08                   CHD =           0.0000     CHD_0                            

            TOTAL IN =      191788.4651              TOTAL IN =         242.2220

          OUT:                                     OUT:
          ----                                     ----
              STO-SS =          28.2974                STO-SS =       1.8822E-02     STORAGE                          
              STO-SY =       54500.5249                STO-SY =          36.7270     STORAGE                          
                 WEL =      137259.6428                   WEL =         205.4761     WEL-1                            
                 API =           0.0000                   API =           0.0000     MAR                              
                 CHD =       3.0388E-08                   CHD =           0.0000     CHD_0                            

           TOTAL OUT =      191788.4651             TOTAL OUT =         242.2220

            IN - OUT =       1.1392E-06              IN - OUT =       7.4325E-09

 PERCENT DISCREPANCY =           0.00     PERCENT DISCREPANCY =           0.00




         TIME SUMMARY AT END OF TIME STEP   59 IN STRESS PERIOD    2
                    SECONDS     MINUTES      HOURS       DAYS        YEARS
                    -----------------------------------------------------------
   TIME STEP LENGTH 8.64000E+05  14400.      240.00      10.000     2.73785E-02
 STRESS PERIOD TIME 5.09760E+07 8.49600E+05  14160.      590.00      1.6153    
         TOTAL TIME 5.10624E+07 8.51040E+05  14184.      591.00      1.6181    


end timestep


start timestep kper="2" kstp="60" mode="normal"

 UBDSV1 SAVING           STO-SS ON UNIT   1042 AT TIME STEP     60, STRESS PERIOD      2
 UBDSV1 SAVING           STO-SY ON UNIT   1042 AT TIME STEP     60, STRESS PERIOD      2
 UBDSV1 SAVING     FLOW-JA-FACE ON UNIT   1042 AT TIME STEP     60, STRESS PERIOD      2
 UBDSV06 SAVING       DATA-SPDIS IN MODEL GWF              PACKAGE NPF             CONNECTED TO MODEL GWF              PACKAGE NPF              ON UNIT   1042 AT TIME STEP     60, STRESS PERIOD      2
 UBDSV06 SAVING              WEL IN MODEL GWF              PACKAGE GWF             CONNECTED TO MODEL GWF              PACKAGE WEL-1            ON UNIT   1042 AT TIME STEP     60, STRESS PERIOD      2
 UBDSV06 SAVING              API IN MODEL GWF              PACKAGE GWF             CONNECTED TO MODEL GWF              PACKAGE MAR              ON UNIT   1042 AT TIME STEP     60, STRESS PERIOD      2
 UBDSV06 SAVING              CHD IN MODEL GWF              PACKAGE GWF             CONNECTED TO MODEL GWF              PACKAGE CHD_0            ON UNIT   1042 AT TIME STEP     60, STRESS PERIOD      2

    CALCULATED INTERCELL FLOW FOR PERIOD 2 STEP 60
(1,1,1): (1,1,2) 5.217104E-02 (1,2,1) 5.874059E-02
(1,1,2): (1,1,1) -5.217104E-02 (1,1,3) 0.105525 (1,2,2) 0.104126
(1,1,3): (1,1,2) -0.105525 (1,1,4) 0.144596 (1,2,3) 0.202972
(1,1,4): (1,1,3) -0.144596 (1,1,5) 0.134941 (1,2,4) 0.352623
(1,1,5): (1,1,4) -0.134941 (1,1,6) 5.518675E-02 (1,2,5) 0.506226
(1,1,6): (1,1,5) -5.518675E-02 (1,1,7) -5.259578E-02 (1,2,6) 0.567847
(1,1,7): (1,1,6) 5.259578E-02 (1,1,8) -0.129440 (1,2,7) 0.507878
(1,1,8): (1,1,7) 0.129440 (1,1,9) -0.131505 (1,2,8) 0.357958
(1,1,9): (1,1,8) 0.131505 (1,1,10) -7.725972E-02 (1,2,9) 0.217692
(1,1,10): (1,1,9) 7.725972E-02 (1,2,10) 0.140935
(1,2,1): (1,1,1) -5.874059E-02 (1,2,2) 9.755351E-02 (1,3,1) 0.119738
(1,2,2): (1,1,2) -0.104126 (1,2,1) -9.755351E-02 (1,2,3) 0.204372 (1,3,2) 0.221685
(1,2,3): (1,1,3) -0.202972 (1,2,2) -0.204372 (1,2,4) 0.294161 (1,3,3) 0.456043
(1,2,4): (1,1,4) -0.352623 (1,2,3) -0.294161 (1,2,5) 0.288218 (1,3,4) 0.840908
(1,2,5): (1,1,5) -0.506226 (1,2,4) -0.288218 (1,2,6) 0.116539 (1,3,5) 1.27400
(1,2,6): (1,1,6) -0.567847 (1,2,5) -0.116539 (1,2,7) -0.112300 (1,3,6) 1.43837
(1,2,7): (1,1,7) -0.507878 (1,2,6) 0.112300 (1,2,8) -0.279027 (1,3,7) 1.27725
(1,2,8): (1,1,8) -0.357958 (1,2,7) 0.279027 (1,2,9) -0.271651 (1,3,8) 0.851444
(1,2,9): (1,1,9) -0.217692 (1,2,8) 0.271651 (1,2,10) -0.153969 (1,3,9) 0.485635
(1,2,10): (1,1,10) -0.140935 (1,2,9) 0.153969 (1,3,10) 0.298009
(1,3,1): (1,2,1) -0.119738 (1,3,2) 0.199478 (1,4,1) 0.156967
(1,3,2): (1,2,2) -0.221685 (1,3,1) -0.199478 (1,3,3) 0.438691 (1,4,2) 0.314116
(1,3,3): (1,2,3) -0.456043 (1,3,2) -0.438691 (1,3,4) 0.678425 (1,4,3) 0.715518
(1,3,4): (1,2,4) -0.840908 (1,3,3) -0.678425 (1,3,5) 0.719043 (1,4,4) 1.49060
(1,3,5): (1,2,5) -1.27400 (1,3,4) -0.719043 (1,3,6) 0.279137 (1,4,5) 2.55460
(1,3,6): (1,2,6) -1.43837 (1,3,5) -0.279137 (1,3,7) -0.271674 (1,4,6) 2.88998
(1,3,7): (1,2,7) -1.27725 (1,3,6) 0.271674 (1,3,8) -0.702524 (1,4,7) 2.55864
(1,3,8): (1,2,8) -0.851444 (1,3,7) 0.702524 (1,3,9) -0.636706 (1,4,8) 1.50368
(1,3,9): (1,2,9) -0.485635 (1,3,8) 0.636706 (1,3,10) -0.341330 (1,4,9) 0.753218
(1,3,10): (1,2,10) -0.298009 (1,3,9) 0.341330 (1,4,10) 0.416637
(1,4,1): (1,3,1) -0.156967 (1,4,2) 0.356693 (1,5,1) 0.103303
(1,4,2): (1,3,2) -0.314116 (1,4,1) -0.356693 (1,4,3) 0.840576 (1,5,2) 0.245662
(1,4,3): (1,3,3) -0.715518 (1,4,2) -0.840576 (1,4,4) 1.45324 (1,5,3) 0.709591
(1,4,4): (1,3,4) -1.49060 (1,4,3) -1.45324 (1,4,5) 1.77565 (1,5,4) 1.97976
(1,4,5): (1,3,5) -2.55460 (1,4,4) -1.77565 (1,4,6) 0.607905 (1,5,5) 4.68220
(1,4,6): (1,3,6) -2.88998 (1,4,5) -0.607905 (1,4,7) -0.596442 (1,5,6) 5.11552
(1,4,7): (1,3,7) -2.55864 (1,4,6) 0.596442 (1,4,8) -1.74989 (1,5,7) 4.68477
(1,4,8): (1,3,8) -1.50368 (1,4,7) 1.74989 (1,4,9) -1.38635 (1,5,8) 1.98747
(1,4,9): (1,3,9) -0.753218 (1,4,8) 1.38635 (1,4,10) -0.677668 (1,5,9) 0.732655
(1,4,10): (1,3,10) -0.416637 (1,4,9) 0.677668 (1,5,10) 0.315549
(1,5,1): (1,4,1) -0.103303 (1,5,2) 0.499405 (1,6,1) -9.813094E-02
(1,5,2): (1,4,2) -0.245662 (1,5,1) -0.499405 (1,5,3) 1.30714 (1,6,2) -0.172430
(1,5,3): (1,4,3) -0.709591 (1,5,2) -1.30714 (1,5,4) 2.73197 (1,6,3) -0.179958
(1,5,4): (1,4,4) -1.97976 (1,5,3) -2.73197 (1,5,5) 4.47348 (1,6,4) 0.911258
(1,5,5): (1,4,5) -4.68220 (1,5,4) -4.47348 (1,5,6) 1.02793 (1,6,5) 8.88097
(1,5,6): (1,4,6) -5.11552 (1,5,5) -1.02793 (1,5,7) -1.01392 (1,6,6) 7.95777
(1,5,7): (1,4,7) -4.68477 (1,5,6) 1.01392 (1,5,8) -4.44183 (1,6,7) 8.87906
(1,5,8): (1,4,8) -1.98747 (1,5,7) 4.44183 (1,5,9) -2.64858 (1,6,8) 0.903443
(1,5,9): (1,4,9) -0.732655 (1,5,8) 2.64858 (1,5,10) -1.09621 (1,6,9) -0.204152
(1,5,10): (1,4,10) -0.315549 (1,5,9) 1.09621 (1,6,10) -0.238500
(1,6,1): (1,5,1) 9.813094E-02 (1,6,2) 0.424870 (1,7,1) -0.333809
(1,6,2): (1,5,2) 0.172430 (1,6,1) -0.424870 (1,6,3) 1.29955 (1,7,2) -0.835257
(1,6,3): (1,5,3) 0.179958 (1,6,2) -1.29955 (1,6,4) 3.85172 (1,7,3) -2.49911
(1,6,4): (1,5,4) -0.911258 (1,6,3) -3.85172 (1,6,5) 12.6622 (1,7,4) -7.66069
(1,6,5): (1,5,5) -8.88097 (1,6,4) -12.6622 (1,6,6) 0.158147 (1,7,5) -25.0370
(1,6,6): (1,5,6) -7.95777 (1,6,5) -0.158147 (1,6,7) -0.145981 (1,7,6) -38.1131
(1,6,7): (1,5,7) -8.87906 (1,6,6) 0.145981 (1,6,8) -12.6351 (1,7,7) -25.0440
(1,6,8): (1,5,8) -0.903443 (1,6,7) 12.6351 (1,6,9) -3.78446 (1,7,8) -7.68272
(1,6,9): (1,5,9) 0.204152 (1,6,8) 3.78446 (1,6,10) -1.13087 (1,7,9) -2.57185
(1,6,10): (1,5,10) 0.238500 (1,6,9) 1.13087 (1,7,10) -1.07111
(1,7,1): (1,6,1) 0.333809 (1,7,2) -7.461626E-02 (1,8,1) -0.237436
(1,7,2): (1,6,2) 0.835257 (1,7,1) 7.461626E-02 (1,7,3) -0.346486 (1,8,2) -0.612741
(1,7,3): (1,6,3) 2.49911 (1,7,2) 0.346486 (1,7,4) -1.15043 (1,8,3) -1.88473
(1,7,4): (1,6,4) 7.66069 (1,7,3) 1.15043 (1,7,5) -3.31791 (1,8,4) -5.82441
(1,7,5): (1,6,5) 25.0370 (1,7,4) 3.31791 (1,7,6) -10.5038 (1,8,5) -18.1747
(1,7,6): (1,6,6) 38.1131 (1,7,5) 10.5038 (1,7,7) 10.5105 (1,8,6) -59.2783
(1,7,7): (1,6,7) 25.0440 (1,7,6) -10.5105 (1,7,8) 3.32814 (1,8,7) -18.1793
(1,7,8): (1,6,8) 7.68272 (1,7,7) -3.32814 (1,7,9) 1.16518 (1,8,8) -5.83941
(1,7,9): (1,6,9) 2.57185 (1,7,8) -1.16518 (1,7,10) 0.350563 (1,8,9) -1.93536
(1,7,10): (1,6,10) 1.07111 (1,7,9) -0.350563 (1,8,10) -0.781412
(1,8,1): (1,7,1) 0.237436 (1,8,2) -0.449311 (1,9,1) 0.107972
(1,8,2): (1,7,2) 0.612741 (1,8,1) 0.449311 (1,8,3) -1.61507 (1,9,2) 0.293793
(1,8,3): (1,7,3) 1.88473 (1,8,2) 1.61507 (1,8,4) -5.06050 (1,9,3) 0.994722
(1,8,4): (1,7,4) 5.82441 (1,8,3) 5.06050 (1,8,5) -15.3326 (1,9,4) 3.52887
(1,8,5): (1,7,5) 18.1747 (1,8,4) 15.3326 (1,8,6) -47.4652 (1,9,5) 12.9404
(1,8,6): (1,7,6) 59.2783 (1,8,5) 47.4652 (1,8,7) 47.4690 (1,9,6) 50.7143
(1,8,7): (1,7,7) 18.1793 (1,8,6) -47.4690 (1,8,8) 15.3321 (1,9,7) 12.9424
(1,8,8): (1,7,8) 5.83941 (1,8,7) -15.3321 (1,8,9) 5.03844 (1,9,8) 3.53524
(1,8,9): (1,7,9) 1.93536 (1,8,8) -5.03844 (1,8,10) 1.49951 (1,9,9) 1.01696
(1,8,10): (1,7,10) 0.781412 (1,8,9) -1.49951 (1,9,10) 0.370423
(1,9,1): (1,8,1) -0.107972 (1,9,2) -0.263201 (1,10,1) 0.257387
(1,9,2): (1,8,2) -0.293793 (1,9,1) 0.263201 (1,9,3) -0.909738 (1,10,2) 0.633247
(1,9,3): (1,8,3) -0.994722 (1,9,2) 0.909738 (1,9,4) -2.48620 (1,10,3) 1.84509
(1,9,4): (1,8,4) -3.52887 (1,9,3) 2.48620 (1,9,5) -5.68266 (1,10,4) 5.39522
(1,9,5): (1,8,5) -12.9404 (1,9,4) 5.68266 (1,9,6) -10.8547 (1,10,5) 16.2200
(1,9,6): (1,8,6) -50.7143 (1,9,5) 10.8547 (1,9,7) 10.8590 (1,10,6) 27.0362
(1,9,7): (1,8,7) -12.9424 (1,9,6) -10.8590 (1,9,8) 5.68696 (1,10,7) 16.2248
(1,9,8): (1,8,8) -3.53524 (1,9,7) -5.68696 (1,9,9) 2.48100 (1,10,8) 5.41166
(1,9,9): (1,8,9) -1.01696 (1,9,8) -2.48100 (1,9,10) 0.849812 (1,10,9) 1.90078
(1,9,10): (1,8,10) -0.370423 (1,9,9) -0.849812 (1,10,10) 0.813739
(1,10,1): (1,9,1) -0.257387 (1,10,2) 0.111405 (1,11,1) 0.122423
(1,10,2): (1,9,2) -0.633247 (1,10,1) -0.111405 (1,10,3) 0.291866 (1,11,2) 0.262732
(1,10,3): (1,9,3) -1.84509 (1,10,2) -0.291866 (1,10,4) 0.975979 (1,11,3) 0.564504
(1,10,4): (1,9,4) -5.39522 (1,10,3) -0.975979 (1,10,5) 4.36551 (1,11,4) 0.707487
(1,10,5): (1,9,5) -16.2200 (1,10,4) -4.36551 (1,10,6) -1.51111 (1,11,5) -1.87883
(1,10,6): (1,9,6) -27.0362 (1,10,5) 1.51111 (1,10,7) 1.51925 (1,11,6) -0.233729
(1,10,7): (1,9,7) -16.2248 (1,10,6) -1.51925 (1,10,8) -4.34938 (1,11,7) -1.87667
(1,10,8): (1,9,8) -5.41166 (1,10,7) 4.34938 (1,10,9) -0.941686 (1,11,8) 0.715859
(1,10,9): (1,9,9) -1.90078 (1,10,8) 0.941686 (1,10,10) -0.226577 (1,11,9) 0.592426
(1,10,10): (1,9,10) -0.813739 (1,10,9) 0.226577 (1,11,10) 0.347637
(1,11,1): (1,10,1) -0.122423 (1,11,2) 0.251698 (1,12,1) -3.732270E-02
(1,11,2): (1,10,2) -0.262732 (1,11,1) -0.251698 (1,11,3) 0.593725 (1,12,2) -7.081945E-02
(1,11,3): (1,10,3) -0.564504 (1,11,2) -0.593725 (1,11,4) 1.11950 (1,12,3) -0.187200
(1,11,4): (1,10,4) -0.707487 (1,11,3) -1.11950 (1,11,5) 1.72589 (1,12,4) -0.556159
(1,11,5): (1,10,5) 1.87883 (1,11,4) -1.72589 (1,11,6) 0.128737 (1,12,5) -1.44994
(1,11,6): (1,10,6) 0.233729 (1,11,5) -0.128737 (1,11,7) -0.118575 (1,12,6) -1.33819
(1,11,7): (1,10,7) 1.87667 (1,11,6) 0.118575 (1,11,8) -1.70385 (1,12,7) -1.45121
(1,11,8): (1,10,8) -0.715859 (1,11,7) 1.70385 (1,11,9) -1.06551 (1,12,8) -0.559777
(1,11,9): (1,10,9) -0.592426 (1,11,8) 1.06551 (1,11,10) -0.471079 (1,12,9) -0.196327
(1,11,10): (1,10,10) -0.347637 (1,11,9) 0.471079 (1,12,10) -9.285531E-02
(1,12,1): (1,11,1) 3.732270E-02 (1,12,2) 0.218141 (1,13,1) -0.100806
(1,12,2): (1,11,2) 7.081945E-02 (1,12,1) -0.218141 (1,12,3) 0.476884 (1,13,2) -0.182237
(1,12,3): (1,11,3) 0.187200 (1,12,2) -0.476884 (1,12,4) 0.748565 (1,13,3) -0.373881
(1,12,4): (1,11,4) 0.556159 (1,12,3) -0.748565 (1,12,5) 0.829854 (1,13,4) -0.712323
(1,12,5): (1,11,5) 1.44994 (1,12,4) -0.829854 (1,12,6) 0.239213 (1,13,5) -1.14092
(1,12,6): (1,11,6) 1.33819 (1,12,5) -0.239213 (1,12,7) -0.230306 (1,13,6) -1.23332
(1,12,7): (1,11,7) 1.45121 (1,12,6) 0.230306 (1,12,8) -0.810353 (1,13,7) -1.14377
(1,12,8): (1,11,8) 0.559777 (1,12,7) 0.810353 (1,12,9) -0.700313 (1,13,8) -0.721407
(1,12,9): (1,11,9) 0.196327 (1,12,8) 0.700313 (1,12,10) -0.367331 (1,13,9) -0.398860
(1,12,10): (1,11,10) 9.285531E-02 (1,12,9) 0.367331 (1,13,10) -0.245111
(1,13,1): (1,12,1) 0.100806 (1,13,2) 0.136682 (1,14,1) -8.722459E-02
(1,13,2): (1,12,2) 0.182237 (1,13,1) -0.136682 (1,13,3) 0.285047 (1,14,2) -0.151409
(1,13,3): (1,12,3) 0.373881 (1,13,2) -0.285047 (1,13,4) 0.410006 (1,14,3) -0.290004
(1,13,4): (1,12,4) 0.712323 (1,13,3) -0.410006 (1,13,5) 0.402505 (1,14,4) -0.499742
(1,13,5): (1,12,5) 1.14092 (1,13,4) -0.402505 (1,13,6) 0.147664 (1,14,5) -0.716487
(1,13,6): (1,12,6) 1.23332 (1,13,5) -0.147664 (1,13,7) -0.141584 (1,14,6) -0.791193
(1,13,7): (1,12,7) 1.14377 (1,13,6) 0.141584 (1,13,8) -0.389313 (1,14,7) -0.719003
(1,13,8): (1,12,8) 0.721407 (1,13,7) 0.389313 (1,13,9) -0.377832 (1,14,8) -0.507805
(1,13,9): (1,12,9) 0.398860 (1,13,8) 0.377832 (1,13,10) -0.213629 (1,14,9) -0.311962
(1,13,10): (1,12,10) 0.245111 (1,13,9) 0.213629 (1,14,10) -0.205348
(1,14,1): (1,13,1) 8.722459E-02 (1,14,2) 7.250742E-02 (1,15,1) -4.528141E-02
(1,14,2): (1,13,2) 0.151409 (1,14,1) -7.250742E-02 (1,14,3) 0.146459 (1,15,2) -7.662394E-02
(1,14,3): (1,13,3) 0.290004 (1,14,2) -0.146459 (1,14,4) 0.200451 (1,15,3) -0.141799
(1,14,4): (1,13,4) 0.499742 (1,14,3) -0.200451 (1,14,5) 0.186415 (1,15,4) -0.234523
(1,14,5): (1,13,5) 0.716487 (1,14,4) -0.186415 (1,14,6) 7.341841E-02 (1,15,5) -0.323761
(1,14,6): (1,13,6) 0.791193 (1,14,5) -7.341841E-02 (1,14,7) -6.984302E-02 (1,15,6) -0.358055
(1,14,7): (1,13,7) 0.719003 (1,14,6) 6.984302E-02 (1,14,8) -0.178785 (1,15,7) -0.325099
(1,14,8): (1,13,8) 0.507805 (1,14,7) 0.178785 (1,14,9) -0.182237 (1,15,8) -0.238793
(1,14,9): (1,13,9) 0.311962 (1,14,8) 0.182237 (1,14,10) -0.107118 (1,15,9) -0.153300
(1,14,10): (1,13,10) 0.205348 (1,14,9) 0.107118 (1,15,10) -0.104361
(1,15,1): (1,14,1) 4.528141E-02 (1,15,2) 4.116618E-02
(1,15,2): (1,14,2) 7.662394E-02 (1,15,1) -4.116618E-02 (1,15,3) 8.128076E-02
(1,15,3): (1,14,3) 0.141799 (1,15,2) -8.128076E-02 (1,15,4) 0.107758
(1,15,4): (1,14,4) 0.234523 (1,15,3) -0.107758 (1,15,5) 9.729698E-02
(1,15,5): (1,14,5) 0.323761 (1,15,4) -9.729698E-02 (1,15,6) 3.921963E-02
(1,15,6): (1,14,6) 0.358055 (1,15,5) -3.921963E-02 (1,15,7) -3.697983E-02
(1,15,7): (1,14,7) 0.325099 (1,15,6) 3.697983E-02 (1,15,8) -9.260213E-02
(1,15,8): (1,14,8) 0.238793 (1,15,7) 9.260213E-02 (1,15,9) -9.679215E-02
(1,15,9): (1,14,9) 0.153300 (1,15,8) 9.679215E-02 (1,15,10) -5.820131E-02
(1,15,10): (1,14,10) 0.104361 (1,15,9) 5.820131E-02

 WEL PACKAGE (WEL-1) FLOW RATES   PERIOD      2   STEP       60
 ----------------------------------------------------------------------------------------
   NUMBER   CELLID                    RATE       NAME                                    
 ----------------------------------------------------------------------------------------
     1      (1,8,6)              -205.21925      WEL                                     
 ----------------------------------------------------------------------------------------




 API PACKAGE (MAR) FLOW RATES   PERIOD      2   STEP       60
 -----------------------------------------------
   NUMBER   CELLID                    RATE      
 -----------------------------------------------
     1      (1,6,5)               46.666667     
     2      (1,6,6)               46.666667     
     3      (1,6,7)               46.666667     
     4      (1,10,5)              21.739749     
     5      (1,10,6)              21.739749     
     6      (1,10,7)              21.739749     
 -----------------------------------------------



1
  HEAD IN LAYER   1 AT END OF TIME STEP  60 IN STRESS PERIOD    2
  ---------------------------------------------------------------------------

            1           2           3           4           5           6           7           8           9          10
 ........................................................................................................................
   1   8.2302E-03  1.3440E-02  2.3968E-02  3.8372E-02  5.1796E-02  5.7284E-02  5.2054E-02  3.9177E-02  2.6078E-02  1.8372E-02
   2   1.4096E-02  2.3828E-02  4.4176E-02  7.3377E-02  0.1019      0.1134      0.1023      7.4707E-02  4.7744E-02  3.2420E-02
   3   2.6039E-02  4.5895E-02  8.9376E-02  0.1562      0.2265      0.2537      0.2272      0.1585      9.5846E-02  6.2037E-02
   4   4.1670E-02  7.7067E-02  0.1598      0.3009      0.4705      0.5282      0.4716      0.3044      0.1699      0.1033    
   5   5.1947E-02  0.1014      0.2292      0.4896      0.9000      0.9935      0.9013      0.4938      0.2414      0.1344    
   6   4.2185E-02  8.4316E-02  0.2116      0.5758       1.662       1.675       1.663      0.5792      0.2215      0.1109    
   7   8.9441E-03  1.4891E-03 -3.3154E-02 -0.1486     -0.4854      -1.589     -0.4847     -0.1470     -3.0097E-02  4.9416E-03
   8  -1.4778E-02 -5.9776E-02 -0.2223     -0.7398      -2.396      -8.637      -2.395     -0.7396     -0.2242     -7.3161E-02
   9  -3.9767E-03 -3.0307E-02 -0.1216     -0.3732     -0.9635      -2.165     -0.9631     -0.3724     -0.1213     -3.5985E-02
  10   2.1706E-02  3.2810E-02  6.1818E-02  0.1579      0.5709      0.4279      0.5716      0.1602      6.7530E-02  4.5024E-02
  11   3.3907E-02  5.8930E-02  0.1176      0.2271      0.3931      0.4055      0.3941      0.2302      0.1260      7.9514E-02
  12   3.0188E-02  5.1889E-02  9.9109E-02  0.1727      0.2536      0.2769      0.2545      0.1755      0.1066      7.0301E-02
  13   2.0137E-02  3.3759E-02  6.2088E-02  0.1027      0.1424      0.1569      0.1430      0.1046      6.7182E-02  4.5961E-02
  14   1.1432E-02  1.8670E-02  3.3267E-02  5.3206E-02  7.1715E-02  7.8999E-02  7.2069E-02  5.4319E-02  3.6194E-02  2.5520E-02
  15   6.9094E-03  1.1021E-02  1.9134E-02  2.9878E-02  3.9569E-02  4.3474E-02  3.9792E-02  3.0569E-02  2.0919E-02  1.5111E-02

 HEAD WILL BE SAVED ON UNIT 1043 AT END OF TIME STEP   60, STRESS PERIOD    2


  VOLUME BUDGET FOR ENTIRE MODEL AT END OF TIME STEP   60, STRESS PERIOD   2
  ---------------------------------------------------------------------------------------------------

     CUMULATIVE VOLUME      L**3       RATES FOR THIS TIME STEP      L**3/T          PACKAGE NAME    
     ------------------                 ------------------------                     ----------------

           IN:                                      IN:
           ---                                      ---
              STO-SS =          22.8483                STO-SS =       1.7512E-02     STORAGE                          
              STO-SY =       54868.8673                STO-SY =          36.2718     STORAGE                          
                 WEL =           0.0000                   WEL =           0.0000     WEL-1                            
                 API =      139311.8353                   API =         205.2192     MAR                              
                 CHD =       2.8247E-08                   CHD =           0.0000     CHD_0                            

            TOTAL IN =      194203.5510              TOTAL IN =         241.5086

          OUT:                                     OUT:
          ----                                     ----
              STO-SS =          28.4833                STO-SS =       1.8588E-02     STORAGE                          
              STO-SY =       54863.2324                STO-SY =          36.2708     STORAGE                          
                 WEL =      139311.8353                   WEL =         205.2192     WEL-1                            
                 API =           0.0000                   API =           0.0000     MAR                              
                 CHD =       3.0388E-08                   CHD =           0.0000     CHD_0                            

           TOTAL OUT =      194203.5510             TOTAL OUT =         241.5086

            IN - OUT =       1.2163E-06              IN - OUT =       7.7123E-09

 PERCENT DISCREPANCY =           0.00     PERCENT DISCREPANCY =           0.00




         TIME SUMMARY AT END OF TIME STEP   60 IN STRESS PERIOD    2
                    SECONDS     MINUTES      HOURS       DAYS        YEARS
                    -----------------------------------------------------------
   TIME STEP LENGTH 8.64000E+05  14400.      240.00      10.000     2.73785E-02
 STRESS PERIOD TIME 5.18400E+07 8.64000E+05  14400.      600.00      1.6427    
         TOTAL TIME 5.19264E+07 8.65440E+05  14424.      601.00      1.6454    


end timestep


start timestep kper="2" kstp="61" mode="normal"

 UBDSV1 SAVING           STO-SS ON UNIT   1042 AT TIME STEP     61, STRESS PERIOD      2
 UBDSV1 SAVING           STO-SY ON UNIT   1042 AT TIME STEP     61, STRESS PERIOD      2
 UBDSV1 SAVING     FLOW-JA-FACE ON UNIT   1042 AT TIME STEP     61, STRESS PERIOD      2
 UBDSV06 SAVING       DATA-SPDIS IN MODEL GWF              PACKAGE NPF             CONNECTED TO MODEL GWF              PACKAGE NPF              ON UNIT   1042 AT TIME STEP     61, STRESS PERIOD      2
 UBDSV06 SAVING              WEL IN MODEL GWF              PACKAGE GWF             CONNECTED TO MODEL GWF              PACKAGE WEL-1            ON UNIT   1042 AT TIME STEP     61, STRESS PERIOD      2
 UBDSV06 SAVING              API IN MODEL GWF              PACKAGE GWF             CONNECTED TO MODEL GWF              PACKAGE MAR              ON UNIT   1042 AT TIME STEP     61, STRESS PERIOD      2
 UBDSV06 SAVING              CHD IN MODEL GWF              PACKAGE GWF             CONNECTED TO MODEL GWF              PACKAGE CHD_0            ON UNIT   1042 AT TIME STEP     61, STRESS PERIOD      2

    CALCULATED INTERCELL FLOW FOR PERIOD 2 STEP 61
(1,1,1): (1,1,2) 5.453082E-02 (1,2,1) 6.113224E-02
(1,1,2): (1,1,1) -5.453082E-02 (1,1,3) 0.109803 (1,2,2) 0.107458
(1,1,3): (1,1,2) -0.109803 (1,1,4) 0.149696 (1,2,3) 0.207968
(1,1,4): (1,1,3) -0.149696 (1,1,5) 0.139160 (1,2,4) 0.359535
(1,1,5): (1,1,4) -0.139160 (1,1,6) 5.688728E-02 (1,2,5) 0.514672
(1,1,6): (1,1,5) -5.688728E-02 (1,1,7) -5.405116E-02 (1,2,6) 0.576909
(1,1,7): (1,1,6) 5.405116E-02 (1,1,8) -0.133217 (1,2,7) 0.516429
(1,1,8): (1,1,7) 0.133217 (1,1,9) -0.135721 (1,2,8) 0.365162
(1,1,9): (1,1,8) 0.135721 (1,1,10) -7.995572E-02 (1,2,9) 0.223347
(1,1,10): (1,1,9) 7.995572E-02 (1,2,10) 0.145571
(1,2,1): (1,1,1) -6.113224E-02 (1,2,2) 0.100854 (1,3,1) 0.123632
(1,2,2): (1,1,2) -0.107458 (1,2,1) -0.100854 (1,2,3) 0.210316 (1,3,2) 0.226998
(1,2,3): (1,1,3) -0.207968 (1,2,2) -0.210316 (1,2,4) 0.301176 (1,3,3) 0.463792
(1,2,4): (1,1,4) -0.359535 (1,2,3) -0.301176 (1,2,5) 0.293963 (1,3,4) 0.851331
(1,2,5): (1,1,5) -0.514672 (1,2,4) -0.293963 (1,2,6) 0.118849 (1,3,5) 1.28647
(1,2,6): (1,1,6) -0.576909 (1,2,5) -0.118849 (1,2,7) -0.114260 (1,3,6) 1.45167
(1,2,7): (1,1,7) -0.516429 (1,2,6) 0.114260 (1,2,8) -0.284143 (1,3,7) 1.28989
(1,2,8): (1,1,8) -0.365162 (1,2,7) 0.284143 (1,2,9) -0.277414 (1,3,8) 0.862355
(1,2,9): (1,1,9) -0.223347 (1,2,8) 0.277414 (1,2,10) -0.157681 (1,3,9) 0.494462
(1,2,10): (1,1,10) -0.145571 (1,2,9) 0.157681 (1,3,10) 0.305415
(1,3,1): (1,2,1) -0.123632 (1,3,2) 0.204196 (1,4,1) 0.160213
(1,3,2): (1,2,2) -0.226998 (1,3,1) -0.204196 (1,3,3) 0.447071 (1,4,2) 0.318206
(1,3,3): (1,2,3) -0.463792 (1,3,2) -0.447071 (1,3,4) 0.688107 (1,4,3) 0.720846
(1,3,4): (1,2,4) -0.851331 (1,3,3) -0.688107 (1,3,5) 0.726804 (1,4,4) 1.49693
(1,3,5): (1,2,5) -1.28647 (1,3,4) -0.726804 (1,3,6) 0.282257 (1,4,5) 2.56140
(1,3,6): (1,2,6) -1.45167 (1,3,5) -0.282257 (1,3,7) -0.274265 (1,4,6) 2.89708
(1,3,7): (1,2,7) -1.28989 (1,3,6) 0.274265 (1,3,8) -0.709344 (1,4,7) 2.56562
(1,3,8): (1,2,8) -0.862355 (1,3,7) 0.709344 (1,3,9) -0.644537 (1,4,8) 1.51045
(1,3,9): (1,2,9) -0.494462 (1,3,8) 0.644537 (1,3,10) -0.346455 (1,4,9) 0.759460
(1,3,10): (1,2,10) -0.305415 (1,3,9) 0.346455 (1,4,10) 0.422370
(1,4,1): (1,3,1) -0.160213 (1,4,2) 0.362257 (1,5,1) 0.102934
(1,4,2): (1,3,2) -0.318206 (1,4,1) -0.362257 (1,4,3) 0.850212 (1,5,2) 0.244245
(1,4,3): (1,3,3) -0.720846 (1,4,2) -0.850212 (1,4,4) 1.46396 (1,5,3) 0.705944
(1,4,4): (1,3,4) -1.49693 (1,4,3) -1.46396 (1,4,5) 1.78390 (1,5,4) 1.97300
(1,4,5): (1,3,5) -2.56140 (1,4,4) -1.78390 (1,4,6) 0.611308 (1,5,5) 4.67253
(1,4,6): (1,3,6) -2.89708 (1,4,5) -0.611308 (1,4,7) -0.599144 (1,5,6) 5.10525
(1,4,7): (1,3,7) -2.56562 (1,4,6) 0.599144 (1,4,8) -1.75692 (1,5,7) 4.67514
(1,4,8): (1,3,8) -1.51045 (1,4,7) 1.75692 (1,4,9) -1.39472 (1,5,8) 1.98075
(1,4,9): (1,3,9) -0.759460 (1,4,8) 1.39472 (1,4,10) -0.683300 (1,5,9) 0.728944
(1,4,10): (1,3,10) -0.422370 (1,4,9) 0.683300 (1,5,10) 0.313653
(1,5,1): (1,4,1) -0.102934 (1,5,2) 0.503927 (1,6,1) -0.103669
(1,5,2): (1,4,2) -0.244245 (1,5,1) -0.503927 (1,5,3) 1.31458 (1,6,2) -0.181410
(1,5,3): (1,4,3) -0.705944 (1,5,2) -1.31458 (1,5,4) 2.73971 (1,6,3) -0.195214
(1,5,4): (1,4,4) -1.97300 (1,5,3) -2.73971 (1,5,5) 4.47917 (1,6,4) 0.888965
(1,5,5): (1,4,5) -4.67253 (1,5,4) -4.47917 (1,5,6) 1.03080 (1,6,5) 8.85313
(1,5,6): (1,4,6) -5.10525 (1,5,5) -1.03080 (1,5,7) -1.01605 (1,6,6) 7.92999
(1,5,7): (1,4,7) -4.67514 (1,5,6) 1.01605 (1,5,8) -4.44627 (1,6,7) 8.85105
(1,5,8): (1,4,8) -1.98075 (1,5,7) 4.44627 (1,5,9) -2.65406 (1,6,8) 0.880597
(1,5,9): (1,4,9) -0.728944 (1,5,8) 2.65406 (1,5,10) -1.10005 (1,6,9) -0.220865
(1,5,10): (1,4,10) -0.313653 (1,5,9) 1.10005 (1,6,10) -0.250896
(1,6,1): (1,5,1) 0.103669 (1,6,2) 0.425942 (1,7,1) -0.342224
(1,6,2): (1,5,2) 0.181410 (1,6,1) -0.425942 (1,6,3) 1.30065 (1,7,2) -0.848334
(1,6,3): (1,5,3) 0.195214 (1,6,2) -1.30065 (1,6,4) 3.85242 (1,7,3) -2.52046
(1,6,4): (1,5,4) -0.888965 (1,6,3) -3.85242 (1,6,5) 12.6639 (1,7,4) -7.69073
(1,6,5): (1,5,5) -8.85313 (1,6,4) -12.6639 (1,6,6) 0.160855 (1,7,5) -25.0715
(1,6,6): (1,5,6) -7.92999 (1,6,5) -0.160855 (1,6,7) -0.148110 (1,7,6) -38.1426
(1,6,7): (1,5,7) -8.85105 (1,6,6) 0.148110 (1,6,8) -12.6360 (1,7,7) -25.0789
(1,6,8): (1,5,8) -0.880597 (1,6,7) 12.6360 (1,6,9) -3.78381 (1,7,8) -7.71364
(1,6,9): (1,5,9) 0.220865 (1,6,8) 3.78381 (1,6,10) -1.13035 (1,7,9) -2.59541
(1,6,10): (1,5,10) 0.250896 (1,6,9) 1.13035 (1,7,10) -1.08919
(1,7,1): (1,6,1) 0.342224 (1,7,2) -7.813387E-02 (1,8,1) -0.243748
(1,7,2): (1,6,2) 0.848334 (1,7,1) 7.813387E-02 (1,7,3) -0.353290 (1,8,2) -0.623145
(1,7,3): (1,6,3) 2.52046 (1,7,2) 0.353290 (1,7,4) -1.15703 (1,8,3) -1.90300
(1,7,4): (1,6,4) 7.69073 (1,7,3) 1.15703 (1,7,5) -3.31682 (1,8,4) -5.85174
(1,7,5): (1,6,5) 25.0715 (1,7,4) 3.31682 (1,7,6) -10.4941 (1,8,5) -18.2039
(1,7,6): (1,6,6) 38.1426 (1,7,5) 10.4941 (1,7,7) 10.5011 (1,8,6) -59.2793
(1,7,7): (1,6,7) 25.0789 (1,7,6) -10.5011 (1,7,8) 3.32734 (1,8,7) -18.2087
(1,7,8): (1,6,8) 7.71364 (1,7,7) -3.32734 (1,7,9) 1.17175 (1,8,8) -5.86737
(1,7,9): (1,6,9) 2.59541 (1,7,8) -1.17175 (1,7,10) 0.356190 (1,8,9) -1.95525
(1,7,10): (1,6,10) 1.08919 (1,7,9) -0.356190 (1,8,10) -0.795647
(1,8,1): (1,7,1) 0.243748 (1,8,2) -0.456903 (1,9,1) 0.107342
(1,8,2): (1,7,2) 0.623145 (1,8,1) 0.456903 (1,8,3) -1.62967 (1,9,2) 0.291194
(1,8,3): (1,7,3) 1.90300 (1,8,2) 1.62967 (1,8,4) -5.07560 (1,9,3) 0.986307
(1,8,4): (1,7,4) 5.85174 (1,8,3) 5.07560 (1,8,5) -15.3294 (1,9,4) 3.50681
(1,8,5): (1,7,5) 18.2039 (1,8,4) 15.3294 (1,8,6) -47.4078 (1,9,5) 12.8885
(1,8,6): (1,7,6) 59.2793 (1,8,5) 47.4078 (1,8,7) 47.4117 (1,9,6) 50.5887
(1,8,7): (1,7,7) 18.2087 (1,8,6) -47.4117 (1,8,8) 15.3288 (1,9,7) 12.8905
(1,8,8): (1,7,8) 5.86737 (1,8,7) -15.3288 (1,8,9) 5.05247 (1,9,8) 3.51320
(1,8,9): (1,7,9) 1.95525 (1,8,8) -5.05247 (1,8,10) 1.51067 (1,9,9) 1.00846
(1,8,10): (1,7,10) 0.795647 (1,8,9) -1.51067 (1,9,10) 0.367172
(1,9,1): (1,8,1) -0.107342 (1,9,2) -0.272744 (1,10,1) 0.261779
(1,9,2): (1,8,2) -0.291194 (1,9,1) 0.272744 (1,9,3) -0.930028 (1,10,2) 0.638801
(1,9,3): (1,8,3) -0.986307 (1,9,2) 0.930028 (1,9,4) -2.51415 (1,10,3) 1.85062
(1,9,4): (1,8,4) -3.50681 (1,9,3) 2.51415 (1,9,5) -5.70481 (1,10,4) 5.39298
(1,9,5): (1,8,5) -12.8885 (1,9,4) 5.70481 (1,9,6) -10.8467 (1,10,5) 16.1852
(1,9,6): (1,8,6) -50.5887 (1,9,5) 10.8467 (1,9,7) 10.8512 (1,10,6) 26.9771
(1,9,7): (1,8,7) -12.8905 (1,9,6) -10.8512 (1,9,8) 5.70898 (1,10,7) 16.1901
(1,9,8): (1,8,8) -3.51320 (1,9,7) -5.70898 (1,9,9) 2.50780 (1,10,8) 5.40991
(1,9,9): (1,8,9) -1.00846 (1,9,8) -2.50780 (1,9,10) 0.866117 (1,10,9) 1.90751
(1,9,10): (1,8,10) -0.367172 (1,9,9) -0.866117 (1,10,10) 0.821674
(1,10,1): (1,9,1) -0.261779 (1,10,2) 0.103016 (1,11,1) 0.128226
(1,10,2): (1,9,2) -0.638801 (1,10,1) -0.103016 (1,10,3) 0.271611 (1,11,2) 0.272570
(1,10,3): (1,9,3) -1.85062 (1,10,2) -0.271611 (1,10,4) 0.940723 (1,11,3) 0.582657
(1,10,4): (1,9,4) -5.39298 (1,10,3) -0.940723 (1,10,5) 4.31320 (1,11,4) 0.738823
(1,10,5): (1,9,5) -16.1852 (1,10,4) -4.31320 (1,10,6) -1.52299 (1,11,5) -1.82274
(1,10,6): (1,9,6) -26.9771 (1,10,5) 1.52299 (1,10,7) 1.53140 (1,11,6) -0.176074
(1,10,7): (1,9,7) -16.1901 (1,10,6) -1.53140 (1,10,8) -4.29687 (1,11,7) -1.82042
(1,10,8): (1,9,8) -5.40991 (1,10,7) 4.29687 (1,10,9) -0.906870 (1,11,8) 0.747723
(1,10,9): (1,9,9) -1.90751 (1,10,8) 0.906870 (1,10,10) -0.209097 (1,11,9) 0.612046
(1,10,10): (1,9,10) -0.821674 (1,10,9) 0.209097 (1,11,10) 0.361076
(1,11,1): (1,10,1) -0.128226 (1,11,2) 0.247324 (1,12,1) -3.403046E-02
(1,11,2): (1,10,2) -0.272570 (1,11,1) -0.247324 (1,11,3) 0.581695 (1,12,2) -6.372503E-02
(1,11,3): (1,10,3) -0.582657 (1,11,2) -0.581695 (1,11,4) 1.09740 (1,12,3) -0.171533
(1,11,4): (1,10,4) -0.738823 (1,11,3) -1.09740 (1,11,5) 1.69911 (1,12,4) -0.526766
(1,11,5): (1,10,5) 1.82274 (1,11,4) -1.69911 (1,11,6) 0.119389 (1,12,5) -1.40429
(1,11,6): (1,10,6) 0.176074 (1,11,5) -0.119389 (1,11,7) -0.108795 (1,12,6) -1.28745
(1,11,7): (1,10,7) 1.82042 (1,11,6) 0.108795 (1,11,8) -1.67651 (1,12,7) -1.40554
(1,11,8): (1,10,8) -0.747723 (1,11,7) 1.67651 (1,11,9) -1.04291 (1,12,8) -0.530189
(1,11,9): (1,10,9) -0.612046 (1,11,8) 1.04291 (1,11,10) -0.459697 (1,12,9) -0.179902
(1,11,10): (1,10,10) -0.361076 (1,11,9) 0.459697 (1,12,10) -8.337641E-02
(1,12,1): (1,11,1) 3.403046E-02 (1,12,2) 0.217576 (1,13,1) -0.100854
(1,12,2): (1,11,2) 6.372503E-02 (1,12,1) -0.217576 (1,12,3) 0.473457 (1,13,2) -0.180402
(1,12,3): (1,11,3) 0.171533 (1,12,2) -0.473457 (1,12,4) 0.740241 (1,13,3) -0.367351
(1,12,4): (1,11,4) 0.526766 (1,12,3) -0.740241 (1,12,5) 0.819206 (1,13,4) -0.697857
(1,12,5): (1,11,5) 1.40429 (1,12,4) -0.819206 (1,12,6) 0.234953 (1,13,5) -1.11765
(1,12,6): (1,11,6) 1.28745 (1,12,5) -0.234953 (1,12,7) -0.225578 (1,13,6) -1.20662
(1,12,7): (1,11,7) 1.40554 (1,12,6) 0.225578 (1,12,8) -0.798987 (1,13,7) -1.12058
(1,12,8): (1,11,8) 0.530189 (1,12,7) 0.798987 (1,12,9) -0.690918 (1,13,8) -0.707094
(1,12,9): (1,11,9) 0.179902 (1,12,8) 0.690918 (1,12,10) -0.362909 (1,13,9) -0.392447
(1,12,10): (1,11,10) 8.337641E-02 (1,12,9) 0.362909 (1,13,10) -0.242851
(1,13,1): (1,12,1) 0.100854 (1,13,2) 0.137999 (1,14,1) -8.890922E-02
(1,13,2): (1,12,2) 0.180402 (1,13,1) -0.137999 (1,13,3) 0.286314 (1,14,2) -0.152751
(1,13,3): (1,12,3) 0.367351 (1,13,2) -0.286314 (1,13,4) 0.409601 (1,14,3) -0.290040
(1,13,4): (1,12,4) 0.697857 (1,13,3) -0.409601 (1,13,5) 0.400586 (1,14,4) -0.497035
(1,13,5): (1,12,5) 1.11765 (1,13,4) -0.400586 (1,13,6) 0.146779 (1,14,5) -0.710504
(1,13,6): (1,12,6) 1.20662 (1,13,5) -0.146779 (1,13,7) -0.140310 (1,14,6) -0.783833
(1,13,7): (1,12,7) 1.12058 (1,13,6) 0.140310 (1,13,8) -0.386751 (1,14,7) -0.713133
(1,13,8): (1,12,8) 0.707094 (1,13,7) 0.386751 (1,13,9) -0.376318 (1,14,8) -0.505380
(1,13,9): (1,12,9) 0.392447 (1,13,8) 0.376318 (1,13,10) -0.213356 (1,14,9) -0.312515
(1,13,10): (1,12,10) 0.242851 (1,13,9) 0.213356 (1,14,10) -0.207367
(1,14,1): (1,13,1) 8.890922E-02 (1,14,2) 7.416708E-02 (1,15,1) -4.664123E-02
(1,14,2): (1,13,2) 0.152751 (1,14,1) -7.416708E-02 (1,14,3) 0.149030 (1,15,2) -7.814052E-02
(1,14,3): (1,13,3) 0.290040 (1,14,2) -0.149030 (1,14,4) 0.202782 (1,15,3) -0.143339
(1,14,4): (1,13,4) 0.497035 (1,14,3) -0.202782 (1,14,5) 0.187754 (1,15,4) -0.235650
(1,14,5): (1,13,5) 0.710504 (1,14,4) -0.187754 (1,14,6) 7.389574E-02 (1,15,5) -0.324187
(1,14,6): (1,13,6) 0.783833 (1,14,5) -7.389574E-02 (1,14,7) -7.004432E-02 (1,15,6) -0.358163
(1,14,7): (1,13,7) 0.713133 (1,14,6) 7.004432E-02 (1,14,8) -0.179651 (1,15,7) -0.325599
(1,14,8): (1,13,8) 0.505380 (1,14,7) 0.179651 (1,14,9) -0.183696 (1,15,8) -0.240114
(1,14,9): (1,13,9) 0.312515 (1,14,8) 0.183696 (1,14,10) -0.108310 (1,15,9) -0.155234
(1,14,10): (1,13,10) 0.207367 (1,14,9) 0.108310 (1,15,10) -0.106526
(1,15,1): (1,14,1) 4.664123E-02 (1,15,2) 4.266904E-02
(1,15,2): (1,14,2) 7.814052E-02 (1,15,1) -4.266904E-02 (1,15,3) 8.382718E-02
(1,15,3): (1,14,3) 0.143339 (1,15,2) -8.382718E-02 (1,15,4) 0.110501
(1,15,4): (1,14,4) 0.235650 (1,15,3) -0.110501 (1,15,5) 9.933603E-02
(1,15,5): (1,14,5) 0.324187 (1,15,4) -9.933603E-02 (1,15,6) 4.001386E-02
(1,15,6): (1,14,6) 0.358163 (1,15,5) -4.001386E-02 (1,15,7) -3.757201E-02
(1,15,7): (1,14,7) 0.325599 (1,15,6) 3.757201E-02 (1,15,8) -9.428774E-02
(1,15,8): (1,14,8) 0.240114 (1,15,7) 9.428774E-02 (1,15,9) -9.886242E-02
(1,15,9): (1,14,9) 0.155234 (1,15,8) 9.886242E-02 (1,15,10) -5.962531E-02
(1,15,10): (1,14,10) 0.106526 (1,15,9) 5.962531E-02

 WEL PACKAGE (WEL-1) FLOW RATES   PERIOD      2   STEP       61
 ----------------------------------------------------------------------------------------
   NUMBER   CELLID                    RATE       NAME                                    
 ----------------------------------------------------------------------------------------
     1      (1,8,6)              -204.97034      WEL                                     
 ----------------------------------------------------------------------------------------




 API PACKAGE (MAR) FLOW RATES   PERIOD      2   STEP       61
 -----------------------------------------------
   NUMBER   CELLID                    RATE      
 -----------------------------------------------
     1      (1,6,5)               46.666667     
     2      (1,6,6)               46.666667     
     3      (1,6,7)               46.666667     
     4      (1,10,5)              21.656781     
     5      (1,10,6)              21.656781     
     6      (1,10,7)              21.656781     
 -----------------------------------------------



1
  HEAD IN LAYER   1 AT END OF TIME STEP  61 IN STRESS PERIOD    2
  ---------------------------------------------------------------------------

            1           2           3           4           5           6           7           8           9          10
 ........................................................................................................................
   1   8.8082E-03  1.4254E-02  2.5206E-02  4.0116E-02  5.3957E-02  5.9612E-02  5.4239E-02  4.0989E-02  2.7473E-02  1.9499E-02
   2   1.4912E-02  2.4973E-02  4.5908E-02  7.5799E-02  0.1049      0.1166      0.1053      7.7226E-02  4.9697E-02  3.4007E-02
   3   2.7242E-02  4.7565E-02  9.1865E-02  0.1596      0.2306      0.2582      0.2314      0.1621      9.8660E-02  6.4353E-02
   4   4.3194E-02  7.9136E-02  0.1628      0.3049      0.4752      0.5332      0.4763      0.3086      0.1733      0.1061    
   5   5.3433E-02  0.1033      0.2318      0.4929      0.9037      0.9974      0.9050      0.4973      0.2445      0.1371    
   6   4.3121E-02  8.5355E-02  0.2127      0.5769       1.663       1.677       1.664      0.5805      0.2229      0.1123    
   7   9.0457E-03  1.2394E-03 -3.4085E-02 -0.1502     -0.4869      -1.590     -0.4863     -0.1485     -3.0974E-02  4.6285E-03
   8  -1.5307E-02 -6.1067E-02 -0.2250     -0.7443      -2.400      -8.639      -2.400     -0.7441     -0.2271     -7.4899E-02
   9  -4.5680E-03 -3.1855E-02 -0.1252     -0.3798     -0.9728      -2.174     -0.9723     -0.3789     -0.1250     -3.8042E-02
  10   2.1554E-02  3.1823E-02  5.8825E-02  0.1515      0.5599      0.4157      0.5607      0.1539      6.4543E-02  4.3767E-02
  11   3.4332E-02  5.8920E-02  0.1164      0.2238      0.3873      0.3988      0.3884      0.2270      0.1250      7.9590E-02
  12   3.0941E-02  5.2585E-02  9.9464E-02  0.1722      0.2521      0.2750      0.2531      0.1751      0.1072      7.1318E-02
  13   2.0887E-02  3.4639E-02  6.3091E-02  0.1036      0.1431      0.1576      0.1438      0.1056      6.8396E-02  4.7205E-02
  14   1.2014E-02  1.9417E-02  3.4269E-02  5.4437E-02  7.3076E-02  8.0407E-02  7.3458E-02  5.5624E-02  3.7356E-02  2.6566E-02
  15   7.3557E-03  1.1618E-02  1.9984E-02  3.1000E-02  4.0893E-02  4.4876E-02  4.1136E-02  3.1746E-02  2.1891E-02  1.5941E-02

 HEAD WILL BE SAVED ON UNIT 1043 AT END OF TIME STEP   61, STRESS PERIOD    2


  VOLUME BUDGET FOR ENTIRE MODEL AT END OF TIME STEP   61, STRESS PERIOD   2
  ---------------------------------------------------------------------------------------------------

     CUMULATIVE VOLUME      L**3       RATES FOR THIS TIME STEP      L**3/T          PACKAGE NAME    
     ------------------                 ------------------------                     ----------------

           IN:                                      IN:
           ---                                      ---
              STO-SS =          23.0213                STO-SS =       1.7299E-02     STORAGE                          
              STO-SY =       55227.1064                STO-SY =          35.8239     STORAGE                          
                 WEL =           0.0000                   WEL =           0.0000     WEL-1                            
                 API =      141361.5388                   API =         204.9703     MAR                              
                 CHD =       2.8247E-08                   CHD =           0.0000     CHD_0                            

            TOTAL IN =      196611.6664              TOTAL IN =         240.8115

          OUT:                                     OUT:
          ----                                     ----
              STO-SS =          28.6669                STO-SS =       1.8359E-02     STORAGE                          
              STO-SY =       55221.4608                STO-SY =          35.8228     STORAGE                          
                 WEL =      141361.5387                   WEL =         204.9703     WEL-1                            
                 API =           0.0000                   API =           0.0000     MAR                              
                 CHD =       3.0388E-08                   CHD =           0.0000     CHD_0                            

           TOTAL OUT =      196611.6664             TOTAL OUT =         240.8115

            IN - OUT =       1.2961E-06              IN - OUT =       7.9802E-09

 PERCENT DISCREPANCY =           0.00     PERCENT DISCREPANCY =           0.00




         TIME SUMMARY AT END OF TIME STEP   61 IN STRESS PERIOD    2
                    SECONDS     MINUTES      HOURS       DAYS        YEARS
                    -----------------------------------------------------------
   TIME STEP LENGTH 8.64000E+05  14400.      240.00      10.000     2.73785E-02
 STRESS PERIOD TIME 5.27040E+07 8.78400E+05  14640.      610.00      1.6701    
         TOTAL TIME 5.27904E+07 8.79840E+05  14664.      611.00      1.6728    


end timestep


start timestep kper="2" kstp="62" mode="normal"

 UBDSV1 SAVING           STO-SS ON UNIT   1042 AT TIME STEP     62, STRESS PERIOD      2
 UBDSV1 SAVING           STO-SY ON UNIT   1042 AT TIME STEP     62, STRESS PERIOD      2
 UBDSV1 SAVING     FLOW-JA-FACE ON UNIT   1042 AT TIME STEP     62, STRESS PERIOD      2
 UBDSV06 SAVING       DATA-SPDIS IN MODEL GWF              PACKAGE NPF             CONNECTED TO MODEL GWF              PACKAGE NPF              ON UNIT   1042 AT TIME STEP     62, STRESS PERIOD      2
 UBDSV06 SAVING              WEL IN MODEL GWF              PACKAGE GWF             CONNECTED TO MODEL GWF              PACKAGE WEL-1            ON UNIT   1042 AT TIME STEP     62, STRESS PERIOD      2
 UBDSV06 SAVING              API IN MODEL GWF              PACKAGE GWF             CONNECTED TO MODEL GWF              PACKAGE MAR              ON UNIT   1042 AT TIME STEP     62, STRESS PERIOD      2
 UBDSV06 SAVING              CHD IN MODEL GWF              PACKAGE GWF             CONNECTED TO MODEL GWF              PACKAGE CHD_0            ON UNIT   1042 AT TIME STEP     62, STRESS PERIOD      2

    CALCULATED INTERCELL FLOW FOR PERIOD 2 STEP 62
(1,1,1): (1,1,2) 5.691341E-02 (1,2,1) 6.352335E-02
(1,1,2): (1,1,1) -5.691341E-02 (1,1,3) 0.114107 (1,2,2) 0.110756
(1,1,3): (1,1,2) -0.114107 (1,1,4) 0.154804 (1,2,3) 0.212864
(1,1,4): (1,1,3) -0.154804 (1,1,5) 0.143374 (1,2,4) 0.366259
(1,1,5): (1,1,4) -0.143374 (1,1,6) 5.858691E-02 (1,2,5) 0.522854
(1,1,6): (1,1,5) -5.858691E-02 (1,1,7) -5.548983E-02 (1,2,6) 0.585679
(1,1,7): (1,1,6) 5.548983E-02 (1,1,8) -0.136966 (1,2,7) 0.524720
(1,1,8): (1,1,7) 0.136966 (1,1,9) -0.139914 (1,2,8) 0.372181
(1,1,9): (1,1,8) 0.139914 (1,1,10) -8.264206E-02 (1,2,9) 0.228901
(1,1,10): (1,1,9) 8.264206E-02 (1,2,10) 0.150160
(1,2,1): (1,1,1) -6.352335E-02 (1,2,2) 0.104143 (1,3,1) 0.127486
(1,2,2): (1,1,2) -0.110756 (1,2,1) -0.104143 (1,2,3) 0.216218 (1,3,2) 0.232200
(1,2,3): (1,1,3) -0.212864 (1,2,2) -0.216218 (1,2,4) 0.308112 (1,3,3) 0.471296
(1,2,4): (1,1,4) -0.366259 (1,2,3) -0.308112 (1,2,5) 0.299629 (1,3,4) 0.861348
(1,2,5): (1,1,5) -0.522854 (1,2,4) -0.299629 (1,2,6) 0.121130 (1,3,5) 1.29839
(1,2,6): (1,1,6) -0.585679 (1,2,5) -0.121130 (1,2,7) -0.116173 (1,3,6) 1.46438
(1,2,7): (1,1,7) -0.524720 (1,2,6) 0.116173 (1,2,8) -0.289155 (1,3,7) 1.30201
(1,2,8): (1,1,8) -0.372181 (1,2,7) 0.289155 (1,2,9) -0.283070 (1,3,8) 0.872862
(1,2,9): (1,1,9) -0.228901 (1,2,8) 0.283070 (1,2,10) -0.161331 (1,3,9) 0.503037
(1,2,10): (1,1,10) -0.150160 (1,2,9) 0.161331 (1,3,10) 0.312667
(1,3,1): (1,2,1) -0.127486 (1,3,2) 0.208833 (1,4,1) 0.163352
(1,3,2): (1,2,2) -0.232200 (1,3,1) -0.208833 (1,3,3) 0.455276 (1,4,2) 0.322105
(1,3,3): (1,2,3) -0.471296 (1,3,2) -0.455276 (1,3,4) 0.697551 (1,4,3) 0.725842
(1,3,4): (1,2,4) -0.861348 (1,3,3) -0.697551 (1,3,5) 0.734355 (1,4,4) 1.50279
(1,3,5): (1,2,5) -1.29839 (1,3,4) -0.734355 (1,3,6) 0.285298 (1,4,5) 2.56764
(1,3,6): (1,2,6) -1.46438 (1,3,5) -0.285298 (1,3,7) -0.276756 (1,4,6) 2.90357
(1,3,7): (1,2,7) -1.30201 (1,3,6) 0.276756 (1,3,8) -0.715932 (1,4,7) 2.57203
(1,3,8): (1,2,8) -0.872862 (1,3,7) 0.715932 (1,3,9) -0.652112 (1,4,8) 1.51674
(1,3,9): (1,2,9) -0.503037 (1,3,8) 0.652112 (1,3,10) -0.351419 (1,4,9) 0.765342
(1,3,10): (1,2,10) -0.312667 (1,3,9) 0.351419 (1,4,10) 0.427834
(1,4,1): (1,3,1) -0.163352 (1,4,2) 0.367657 (1,5,1) 0.102437
(1,4,2): (1,3,2) -0.322105 (1,4,1) -0.367657 (1,4,3) 0.859532 (1,5,2) 0.242673
(1,4,3): (1,3,3) -0.725842 (1,4,2) -0.859532 (1,4,4) 1.47429 (1,5,3) 0.702132
(1,4,4): (1,3,4) -1.50279 (1,4,3) -1.47429 (1,4,5) 1.79186 (1,5,4) 1.96614
(1,4,5): (1,3,5) -2.56764 (1,4,4) -1.79186 (1,4,6) 0.614601 (1,5,5) 4.66284
(1,4,6): (1,3,6) -2.90357 (1,4,5) -0.614601 (1,4,7) -0.601716 (1,5,6) 5.09498
(1,4,7): (1,3,7) -2.57203 (1,4,6) 0.601716 (1,4,8) -1.76364 (1,5,7) 4.66549
(1,4,8): (1,3,8) -1.51674 (1,4,7) 1.76364 (1,4,9) -1.40271 (1,5,8) 1.97391
(1,4,9): (1,3,9) -0.765342 (1,4,8) 1.40271 (1,4,10) -0.688680 (1,5,9) 0.725031
(1,4,10): (1,3,10) -0.427834 (1,4,9) 0.688680 (1,5,10) 0.311530
(1,5,1): (1,4,1) -0.102437 (1,5,2) 0.508256 (1,6,1) -0.109262
(1,5,2): (1,4,2) -0.242673 (1,5,1) -0.508256 (1,5,3) 1.32169 (1,6,2) -0.190361
(1,5,3): (1,4,3) -0.702132 (1,5,2) -1.32169 (1,5,4) 2.74713 (1,6,3) -0.210233
(1,5,4): (1,4,4) -1.96614 (1,5,3) -2.74713 (1,5,5) 4.48464 (1,6,4) 0.867218
(1,5,5): (1,4,5) -4.66284 (1,5,4) -4.48464 (1,5,6) 1.03358 (1,6,5) 8.82611
(1,5,6): (1,4,6) -5.09498 (1,5,5) -1.03358 (1,5,7) -1.01807 (1,6,6) 7.90306
(1,5,7): (1,4,7) -4.66549 (1,5,6) 1.01807 (1,5,8) -4.45049 (1,6,7) 8.82385
(1,5,8): (1,4,8) -1.97391 (1,5,7) 4.45049 (1,5,9) -2.65924 (1,6,8) 0.858281
(1,5,9): (1,4,9) -0.725031 (1,5,8) 2.65924 (1,5,10) -1.10366 (1,6,9) -0.237365
(1,5,10): (1,4,10) -0.311530 (1,5,9) 1.10366 (1,6,10) -0.263267
(1,6,1): (1,5,1) 0.109262 (1,6,2) 0.426907 (1,7,1) -0.350619
(1,6,2): (1,5,2) 0.190361 (1,6,1) -0.426907 (1,6,3) 1.30163 (1,7,2) -0.861242
(1,6,3): (1,5,3) 0.210233 (1,6,2) -1.30163 (1,6,4) 3.85310 (1,7,3) -2.54132
(1,6,4): (1,5,4) -0.867218 (1,6,3) -3.85310 (1,6,5) 12.6656 (1,7,4) -7.71990
(1,6,5): (1,5,5) -8.82611 (1,6,4) -12.6656 (1,6,6) 0.163512 (1,7,5) -25.1049
(1,6,6): (1,5,6) -7.90306 (1,6,5) -0.163512 (1,6,7) -0.150179 (1,7,6) -38.1712
(1,6,7): (1,5,7) -8.82385 (1,6,6) 0.150179 (1,6,8) -12.6368 (1,7,7) -25.1126
(1,6,8): (1,5,8) -0.858281 (1,6,7) 12.6368 (1,6,9) -3.78317 (1,7,8) -7.74370
(1,6,9): (1,5,9) 0.237365 (1,6,8) 3.78317 (1,6,10) -1.12980 (1,7,9) -2.61849
(1,6,10): (1,5,10) 0.263267 (1,6,9) 1.12980 (1,7,10) -1.10705
(1,7,1): (1,6,1) 0.350619 (1,7,2) -8.160887E-02 (1,8,1) -0.250084
(1,7,2): (1,6,2) 0.861242 (1,7,1) 8.160887E-02 (1,7,3) -0.359903 (1,8,2) -0.633478
(1,7,3): (1,6,3) 2.54132 (1,7,2) 0.359903 (1,7,4) -1.16329 (1,8,3) -1.92097
(1,7,4): (1,6,4) 7.71990 (1,7,3) 1.16329 (1,7,5) -3.31559 (1,8,4) -5.87847
(1,7,5): (1,6,5) 25.1049 (1,7,4) 3.31559 (1,7,6) -10.4847 (1,8,5) -18.2324
(1,7,6): (1,6,6) 38.1712 (1,7,5) 10.4847 (1,7,7) 10.4920 (1,8,6) -59.2806
(1,7,7): (1,6,7) 25.1126 (1,7,6) -10.4920 (1,7,8) 3.32639 (1,8,7) -18.2375
(1,7,8): (1,6,8) 7.74370 (1,7,7) -3.32639 (1,7,9) 1.17796 (1,8,8) -5.89473
(1,7,9): (1,6,9) 2.61849 (1,7,8) -1.17796 (1,7,10) 0.361597 (1,8,9) -1.97486
(1,7,10): (1,6,10) 1.10705 (1,7,9) -0.361597 (1,8,10) -0.809800
(1,8,1): (1,7,1) 0.250084 (1,8,2) -0.464357 (1,9,1) 0.106584
(1,8,2): (1,7,2) 0.633478 (1,8,1) 0.464357 (1,8,3) -1.64386 (1,9,2) 0.288438
(1,8,3): (1,7,3) 1.92097 (1,8,2) 1.64386 (1,8,4) -5.09006 (1,9,3) 0.977768
(1,8,4): (1,7,4) 5.87847 (1,8,3) 5.09006 (1,8,5) -15.3260 (1,9,4) 3.48493
(1,8,5): (1,7,5) 18.2324 (1,8,4) 15.3260 (1,8,6) -47.3521 (1,9,5) 12.8376
(1,8,6): (1,7,6) 59.2806 (1,8,5) 47.3521 (1,8,7) 47.3561 (1,9,6) 50.4663
(1,8,7): (1,7,7) 18.2375 (1,8,6) -47.3561 (1,8,8) 15.3253 (1,9,7) 12.8396
(1,8,8): (1,7,8) 5.89473 (1,8,7) -15.3253 (1,8,9) 5.06583 (1,9,8) 3.49133
(1,8,9): (1,7,9) 1.97486 (1,8,8) -5.06583 (1,8,10) 1.52141 (1,9,9) 0.999798
(1,8,10): (1,7,10) 0.809800 (1,8,9) -1.52141 (1,9,10) 0.363689
(1,9,1): (1,8,1) -0.106584 (1,9,2) -0.282183 (1,10,1) 0.266047
(1,9,2): (1,8,2) -0.288438 (1,9,1) 0.282183 (1,9,3) -0.949872 (1,10,2) 0.644110
(1,9,3): (1,8,3) -0.977768 (1,9,2) 0.949872 (1,9,4) -2.54117 (1,10,3) 1.85573
(1,9,4): (1,8,4) -3.48493 (1,9,3) 2.54117 (1,9,5) -5.72601 (1,10,4) 5.39035
(1,9,5): (1,8,5) -12.8376 (1,9,4) 5.72601 (1,9,6) -10.8389 (1,10,5) 16.1509
(1,9,6): (1,8,6) -50.4663 (1,9,5) 10.8389 (1,9,7) 10.8435 (1,10,6) 26.9191
(1,9,7): (1,8,7) -12.8396 (1,9,6) -10.8435 (1,9,8) 5.73004 (1,10,7) 16.1560
(1,9,8): (1,8,8) -3.49133 (1,9,7) -5.73004 (1,9,9) 2.53361 (1,10,8) 5.40777
(1,9,9): (1,8,9) -0.999798 (1,9,8) -2.53361 (1,9,10) 0.881931 (1,10,9) 1.91378
(1,9,10): (1,8,10) -0.363689 (1,9,9) -0.881931 (1,10,10) 0.829266
(1,10,1): (1,9,1) -0.266047 (1,10,2) 9.461355E-02 (1,11,1) 0.134027
(1,10,2): (1,9,2) -0.644110 (1,10,1) -9.461355E-02 (1,10,3) 0.251639 (1,11,2) 0.282261
(1,10,3): (1,9,3) -1.85573 (1,10,2) -0.251639 (1,10,4) 0.906448 (1,11,3) 0.600298
(1,10,4): (1,9,4) -5.39035 (1,10,3) -0.906448 (1,10,5) 4.26268 (1,11,4) 0.769001
(1,10,5): (1,9,5) -16.1509 (1,10,4) -4.26268 (1,10,6) -1.53439 (1,11,5) -1.76887
(1,10,6): (1,9,6) -26.9191 (1,10,5) 1.53439 (1,10,7) 1.54308 (1,11,6) -0.120807
(1,10,7): (1,9,7) -16.1560 (1,10,6) -1.54308 (1,10,8) -4.24619 (1,11,7) -1.76639
(1,10,8): (1,9,8) -5.40777 (1,10,7) 4.24619 (1,10,9) -0.873107 (1,11,8) 0.778441
(1,10,9): (1,9,9) -1.91378 (1,10,8) 0.873107 (1,10,10) -0.192009 (1,11,9) 0.631163
(1,10,10): (1,9,10) -0.829266 (1,10,9) 0.192009 (1,11,10) 0.374336
(1,11,1): (1,10,1) -0.134027 (1,11,2) 0.242790 (1,12,1) -3.059595E-02
(1,11,2): (1,10,2) -0.282261 (1,11,1) -0.242790 (1,11,3) 0.569582 (1,12,2) -5.652926E-02
(1,11,3): (1,10,3) -0.600298 (1,11,2) -0.569582 (1,11,4) 1.07563 (1,12,3) -0.155960
(1,11,4): (1,10,4) -0.769001 (1,11,3) -1.07563 (1,11,5) 1.67304 (1,12,4) -0.497935
(1,11,5): (1,10,5) 1.76887 (1,11,4) -1.67304 (1,11,6) 0.110316 (1,12,5) -1.35987
(1,11,6): (1,10,6) 0.120807 (1,11,5) -0.110316 (1,11,7) -9.929159E-02 (1,12,6) -1.23815
(1,11,7): (1,10,7) 1.76639 (1,11,6) 9.929159E-02 (1,11,8) -1.64991 (1,12,7) -1.36107
(1,11,8): (1,10,8) -0.778441 (1,11,7) 1.64991 (1,11,9) -1.02071 (1,12,8) -0.501142
(1,11,9): (1,10,9) -0.631163 (1,11,8) 1.02071 (1,11,10) -0.448381 (1,12,9) -0.163527
(1,11,10): (1,10,10) -0.374336 (1,11,9) 0.448381 (1,12,10) -7.372984E-02
(1,12,1): (1,11,1) 3.059595E-02 (1,12,2) 0.216809 (1,13,1) -0.100724
(1,12,2): (1,11,2) 5.652926E-02 (1,12,1) -0.216809 (1,12,3) 0.469750 (1,13,2) -0.178331
(1,12,3): (1,11,3) 0.155960 (1,12,2) -0.469750 (1,12,4) 0.731771 (1,13,3) -0.360549
(1,12,4): (1,11,4) 0.497935 (1,12,3) -0.731771 (1,12,5) 0.808630 (1,13,4) -0.683216
(1,12,5): (1,11,5) 1.35987 (1,12,4) -0.808630 (1,12,6) 0.230744 (1,13,5) -1.09443
(1,12,6): (1,11,6) 1.23815 (1,12,5) -0.230744 (1,12,7) -0.220894 (1,13,6) -1.18007
(1,12,7): (1,11,7) 1.36107 (1,12,6) 0.220894 (1,12,8) -0.787700 (1,13,7) -1.09743
(1,12,8): (1,11,8) 0.501142 (1,12,7) 0.787700 (1,12,9) -0.681427 (1,13,8) -0.692589
(1,12,9): (1,11,9) 0.163527 (1,12,8) 0.681427 (1,12,10) -0.358335 (1,13,9) -0.385710
(1,12,10): (1,11,10) 7.372984E-02 (1,12,9) 0.358335 (1,13,10) -0.240245
(1,13,1): (1,12,1) 0.100724 (1,13,2) 0.139173 (1,14,1) -9.047532E-02
(1,13,2): (1,12,2) 0.178331 (1,13,1) -0.139173 (1,13,3) 0.287337 (1,14,2) -0.153895
(1,13,3): (1,12,3) 0.360549 (1,13,2) -0.287337 (1,13,4) 0.408954 (1,14,3) -0.289759
(1,13,4): (1,12,4) 0.683216 (1,13,3) -0.408954 (1,13,5) 0.398524 (1,14,4) -0.493920
(1,13,5): (1,12,5) 1.09443 (1,13,4) -0.398524 (1,13,6) 0.145850 (1,14,5) -0.704089
(1,13,6): (1,12,6) 1.18007 (1,13,5) -0.145850 (1,13,7) -0.138981 (1,14,6) -0.776042
(1,13,7): (1,12,7) 1.09743 (1,13,6) 0.138981 (1,13,8) -0.384042 (1,14,7) -0.706831
(1,13,8): (1,12,8) 0.692589 (1,13,7) 0.384042 (1,13,9) -0.374580 (1,14,8) -0.502539
(1,13,9): (1,12,9) 0.385710 (1,13,8) 0.374580 (1,13,10) -0.212909 (1,14,9) -0.312718
(1,13,10): (1,12,10) 0.240245 (1,13,9) 0.212909 (1,14,10) -0.209105
(1,14,1): (1,13,1) 9.047532E-02 (1,14,2) 7.576303E-02 (1,15,1) -4.795380E-02
(1,14,2): (1,13,2) 0.153895 (1,14,1) -7.576303E-02 (1,14,3) 0.151476 (1,15,2) -7.956380E-02
(1,14,3): (1,13,3) 0.289759 (1,14,2) -0.151476 (1,14,4) 0.204961 (1,15,3) -0.144707
(1,14,4): (1,13,4) 0.493920 (1,14,3) -0.204961 (1,14,5) 0.188974 (1,15,4) -0.236521
(1,14,5): (1,13,5) 0.704089 (1,14,4) -0.188974 (1,14,6) 7.433074E-02 (1,15,5) -0.324299
(1,14,6): (1,13,6) 0.776042 (1,14,5) -7.433074E-02 (1,14,7) -7.019136E-02 (1,15,6) -0.357938
(1,14,7): (1,13,7) 0.706831 (1,14,6) 7.019136E-02 (1,14,8) -0.180385 (1,15,7) -0.325786
(1,14,8): (1,13,8) 0.502539 (1,14,7) 0.180385 (1,14,9) -0.184996 (1,15,8) -0.241177
(1,14,9): (1,13,9) 0.312718 (1,14,8) 0.184996 (1,14,10) -0.109396 (1,15,9) -0.156983
(1,14,10): (1,13,10) 0.209105 (1,14,9) 0.109396 (1,15,10) -0.108561
(1,15,1): (1,14,1) 4.795380E-02 (1,15,2) 4.415423E-02
(1,15,2): (1,14,2) 7.956380E-02 (1,15,1) -4.415423E-02 (1,15,3) 8.632904E-02
(1,15,3): (1,14,3) 0.144707 (1,15,2) -8.632904E-02 (1,15,4) 0.113176
(1,15,4): (1,14,4) 0.236521 (1,15,3) -0.113176 (1,15,5) 0.101312
(1,15,5): (1,14,5) 0.324299 (1,15,4) -0.101312 (1,15,6) 4.078511E-02
(1,15,6): (1,14,6) 0.357938 (1,15,5) -4.078511E-02 (1,15,7) -3.812967E-02
(1,15,7): (1,14,7) 0.325786 (1,15,6) 3.812967E-02 (1,15,8) -9.589605E-02
(1,15,8): (1,14,8) 0.241177 (1,15,7) 9.589605E-02 (1,15,9) -0.100849
(1,15,9): (1,14,9) 0.156983 (1,15,8) 0.100849 (1,15,10) -6.099739E-02
(1,15,10): (1,14,10) 0.108561 (1,15,9) 6.099739E-02

 WEL PACKAGE (WEL-1) FLOW RATES   PERIOD      2   STEP       62
 ----------------------------------------------------------------------------------------
   NUMBER   CELLID                    RATE       NAME                                    
 ----------------------------------------------------------------------------------------
     1      (1,8,6)              -204.72903      WEL                                     
 ----------------------------------------------------------------------------------------




 API PACKAGE (MAR) FLOW RATES   PERIOD      2   STEP       62
 -----------------------------------------------
   NUMBER   CELLID                    RATE      
 -----------------------------------------------
     1      (1,6,5)               46.666667     
     2      (1,6,6)               46.666667     
     3      (1,6,7)               46.666667     
     4      (1,10,5)              21.576342     
     5      (1,10,6)              21.576342     
     6      (1,10,7)              21.576342     
 -----------------------------------------------



1
  HEAD IN LAYER   1 AT END OF TIME STEP  62 IN STRESS PERIOD    2
  ---------------------------------------------------------------------------

            1           2           3           4           5           6           7           8           9          10
 ........................................................................................................................
   1   9.4101E-03  1.5093E-02  2.6473E-02  4.1889E-02  5.6147E-02  6.1969E-02  5.6454E-02  4.2835E-02  2.8903E-02  2.0663E-02
   2   1.5752E-02  2.6140E-02  4.7659E-02  7.8231E-02  0.1079      0.1198      0.1084      7.9758E-02  5.1675E-02  3.5625E-02
   3   2.8465E-02  4.9246E-02  9.4348E-02  0.1630      0.2347      0.2625      0.2356      0.1656      0.1015      6.6685E-02
   4   4.4727E-02  8.1197E-02  0.1657      0.3088      0.4797      0.5381      0.4810      0.3127      0.1767      0.1090    
   5   5.4915E-02  0.1052      0.2344      0.4961      0.9072       1.001      0.9087      0.5007      0.2474      0.1397    
   6   4.4048E-02  8.6374E-02  0.2138      0.5781       1.664       1.678       1.665      0.5818      0.2243      0.1138    
   7   9.1403E-03  9.8689E-04 -3.5000E-02 -0.1517     -0.4884      -1.591     -0.4877     -0.1500     -3.1837E-02  4.3069E-03
   8  -1.5845E-02 -6.2355E-02 -0.2278     -0.7486      -2.405      -8.640      -2.405     -0.7485     -0.2300     -7.6638E-02
   9  -5.1813E-03 -3.3414E-02 -0.1287     -0.3862     -0.9818      -2.184     -0.9813     -0.3853     -0.1287     -4.0123E-02
  10   2.1367E-02  3.0799E-02  5.5823E-02  0.1452      0.5492      0.4038      0.5501      0.1476      6.1537E-02  4.2453E-02
  11   3.4723E-02  5.8860E-02  0.1152      0.2204      0.3816      0.3922      0.3826      0.2237      0.1239      7.9591E-02
  12   3.1674E-02  5.3240E-02  9.9751E-02  0.1717      0.2506      0.2730      0.2515      0.1747      0.1077      7.2277E-02
  13   2.1633E-02  3.5501E-02  6.4052E-02  0.1045      0.1438      0.1582      0.1445      0.1066      6.9568E-02  4.8424E-02
  14   1.2605E-02  2.0166E-02  3.5261E-02  5.5644E-02  7.4401E-02  8.1774E-02  7.4812E-02  5.6907E-02  3.8512E-02  2.7615E-02
  15   7.8160E-03  1.2226E-02  2.0841E-02  3.2122E-02  4.2211E-02  4.6271E-02  4.2475E-02  3.2926E-02  2.2874E-02  1.6789E-02

 HEAD WILL BE SAVED ON UNIT 1043 AT END OF TIME STEP   62, STRESS PERIOD    2


  VOLUME BUDGET FOR ENTIRE MODEL AT END OF TIME STEP   62, STRESS PERIOD   2
  ---------------------------------------------------------------------------------------------------

     CUMULATIVE VOLUME      L**3       RATES FOR THIS TIME STEP      L**3/T          PACKAGE NAME    
     ------------------                 ------------------------                     ----------------

           IN:                                      IN:
           ---                                      ---
              STO-SS =          23.1922                STO-SS =       1.7093E-02     STORAGE                          
              STO-SY =       55581.0117                STO-SY =          35.3905     STORAGE                          
                 WEL =           0.0000                   WEL =           0.0000     WEL-1                            
                 API =      143408.8290                   API =         204.7290     MAR                              
                 CHD =       2.8247E-08                   CHD =           0.0000     CHD_0                            

            TOTAL IN =      199013.0330              TOTAL IN =         240.1367

          OUT:                                     OUT:
          ----                                     ----
              STO-SS =          28.8483                STO-SS =       1.8138E-02     STORAGE                          
              STO-SY =       55575.3558                STO-SY =          35.3895     STORAGE                          
                 WEL =      143408.8290                   WEL =         204.7290     WEL-1                            
                 API =           0.0000                   API =           0.0000     MAR                              
                 CHD =       3.0388E-08                   CHD =           0.0000     CHD_0                            

           TOTAL OUT =      199013.0330             TOTAL OUT =         240.1367

            IN - OUT =       1.3786E-06              IN - OUT =       8.2499E-09

 PERCENT DISCREPANCY =           0.00     PERCENT DISCREPANCY =           0.00




         TIME SUMMARY AT END OF TIME STEP   62 IN STRESS PERIOD    2
                    SECONDS     MINUTES      HOURS       DAYS        YEARS
                    -----------------------------------------------------------
   TIME STEP LENGTH 8.64000E+05  14400.      240.00      10.000     2.73785E-02
 STRESS PERIOD TIME 5.35680E+07 8.92800E+05  14880.      620.00      1.6975    
         TOTAL TIME 5.36544E+07 8.94240E+05  14904.      621.00      1.7002    


end timestep


start timestep kper="2" kstp="63" mode="normal"

 UBDSV1 SAVING           STO-SS ON UNIT   1042 AT TIME STEP     63, STRESS PERIOD      2
 UBDSV1 SAVING           STO-SY ON UNIT   1042 AT TIME STEP     63, STRESS PERIOD      2
 UBDSV1 SAVING     FLOW-JA-FACE ON UNIT   1042 AT TIME STEP     63, STRESS PERIOD      2
 UBDSV06 SAVING       DATA-SPDIS IN MODEL GWF              PACKAGE NPF             CONNECTED TO MODEL GWF              PACKAGE NPF              ON UNIT   1042 AT TIME STEP     63, STRESS PERIOD      2
 UBDSV06 SAVING              WEL IN MODEL GWF              PACKAGE GWF             CONNECTED TO MODEL GWF              PACKAGE WEL-1            ON UNIT   1042 AT TIME STEP     63, STRESS PERIOD      2
 UBDSV06 SAVING              API IN MODEL GWF              PACKAGE GWF             CONNECTED TO MODEL GWF              PACKAGE MAR              ON UNIT   1042 AT TIME STEP     63, STRESS PERIOD      2
 UBDSV06 SAVING              CHD IN MODEL GWF              PACKAGE GWF             CONNECTED TO MODEL GWF              PACKAGE CHD_0            ON UNIT   1042 AT TIME STEP     63, STRESS PERIOD      2

    CALCULATED INTERCELL FLOW FOR PERIOD 2 STEP 63
(1,1,1): (1,1,2) 5.931620E-02 (1,2,1) 6.591039E-02
(1,1,2): (1,1,1) -5.931620E-02 (1,1,3) 0.118432 (1,2,2) 0.114016
(1,1,3): (1,1,2) -0.118432 (1,1,4) 0.159917 (1,2,3) 0.217655
(1,1,4): (1,1,3) -0.159917 (1,1,5) 0.147579 (1,2,4) 0.372794
(1,1,5): (1,1,4) -0.147579 (1,1,6) 6.028487E-02 (1,2,5) 0.530775
(1,1,6): (1,1,5) -6.028487E-02 (1,1,7) -5.691061E-02 (1,2,6) 0.594160
(1,1,7): (1,1,6) 5.691061E-02 (1,1,8) -0.140684 (1,2,7) 0.532752
(1,1,8): (1,1,7) 0.140684 (1,1,9) -0.144082 (1,2,8) 0.379016
(1,1,9): (1,1,8) 0.144082 (1,1,10) -8.531608E-02 (1,2,9) 0.234352
(1,1,10): (1,1,9) 8.531608E-02 (1,2,10) 0.154697
(1,2,1): (1,1,1) -6.591039E-02 (1,2,2) 0.107419 (1,3,1) 0.131294
(1,2,2): (1,1,2) -0.114016 (1,2,1) -0.107419 (1,2,3) 0.222075 (1,3,2) 0.237288
(1,2,3): (1,1,3) -0.217655 (1,2,2) -0.222075 (1,2,4) 0.314969 (1,3,3) 0.478557
(1,2,4): (1,1,4) -0.372794 (1,2,3) -0.314969 (1,2,5) 0.305214 (1,3,4) 0.870968
(1,2,5): (1,1,5) -0.530775 (1,2,4) -0.305214 (1,2,6) 0.123382 (1,3,5) 1.30980
(1,2,6): (1,1,6) -0.594160 (1,2,5) -0.123382 (1,2,7) -0.118037 (1,3,6) 1.47652
(1,2,7): (1,1,7) -0.532752 (1,2,6) 0.118037 (1,2,8) -0.294063 (1,3,7) 1.31360
(1,2,8): (1,1,8) -0.379016 (1,2,7) 0.294063 (1,2,9) -0.288618 (1,3,8) 0.882974
(1,2,9): (1,1,9) -0.234352 (1,2,8) 0.288618 (1,2,10) -0.164916 (1,3,9) 0.511358
(1,2,10): (1,1,10) -0.154697 (1,2,9) 0.164916 (1,3,10) 0.319760
(1,3,1): (1,2,1) -0.131294 (1,3,2) 0.213388 (1,4,1) 0.166382
(1,3,2): (1,2,2) -0.237288 (1,3,1) -0.213388 (1,3,3) 0.463308 (1,4,2) 0.325816
(1,3,3): (1,2,3) -0.478557 (1,3,2) -0.463308 (1,3,4) 0.706762 (1,4,3) 0.730520
(1,3,4): (1,2,4) -0.870968 (1,3,3) -0.706762 (1,3,5) 0.741703 (1,4,4) 1.50820
(1,3,5): (1,2,5) -1.30980 (1,3,4) -0.741703 (1,3,6) 0.288264 (1,4,5) 2.57335
(1,3,6): (1,2,6) -1.47652 (1,3,5) -0.288264 (1,3,7) -0.279151 (1,4,6) 2.90951
(1,3,7): (1,2,7) -1.31360 (1,3,6) 0.279151 (1,3,8) -0.722294 (1,4,7) 2.57791
(1,3,8): (1,2,8) -0.882974 (1,3,7) 0.722294 (1,3,9) -0.659438 (1,4,8) 1.52257
(1,3,9): (1,2,9) -0.511358 (1,3,8) 0.659438 (1,3,10) -0.356225 (1,4,9) 0.770876
(1,3,10): (1,2,10) -0.319760 (1,3,9) 0.356225 (1,4,10) 0.433032
(1,4,1): (1,3,1) -0.166382 (1,4,2) 0.372895 (1,5,1) 0.101816
(1,4,2): (1,3,2) -0.325816 (1,4,1) -0.372895 (1,4,3) 0.868549 (1,5,2) 0.240954
(1,4,3): (1,3,3) -0.730520 (1,4,2) -0.868549 (1,4,4) 1.48426 (1,5,3) 0.698170
(1,4,4): (1,3,4) -1.50820 (1,4,3) -1.48426 (1,4,5) 1.79953 (1,5,4) 1.95918
(1,4,5): (1,3,5) -2.57335 (1,4,4) -1.79953 (1,4,6) 0.617788 (1,5,5) 4.65315
(1,4,6): (1,3,6) -2.90951 (1,4,5) -0.617788 (1,4,7) -0.604161 (1,5,6) 5.08473
(1,4,7): (1,3,7) -2.57791 (1,4,6) 0.604161 (1,4,8) -1.77006 (1,5,7) 4.65582
(1,4,8): (1,3,8) -1.52257 (1,4,7) 1.77006 (1,4,9) -1.41035 (1,5,8) 1.96696
(1,4,9): (1,3,9) -0.770876 (1,4,8) 1.41035 (1,4,10) -0.693820 (1,5,9) 0.720930
(1,4,10): (1,3,10) -0.433032 (1,4,9) 0.693820 (1,5,10) 0.309191
(1,5,1): (1,4,1) -0.101816 (1,5,2) 0.512401 (1,6,1) -0.114907
(1,5,2): (1,4,2) -0.240954 (1,5,1) -0.512401 (1,5,3) 1.32850 (1,6,2) -0.199277
(1,5,3): (1,4,3) -0.698170 (1,5,2) -1.32850 (1,5,4) 2.75424 (1,6,3) -0.225018
(1,5,4): (1,4,4) -1.95918 (1,5,3) -2.75424 (1,5,5) 4.48992 (1,6,4) 0.845998
(1,5,5): (1,4,5) -4.65315 (1,5,4) -4.48992 (1,5,6) 1.03628 (1,6,5) 8.79988
(1,5,6): (1,4,6) -5.08473 (1,5,5) -1.03628 (1,5,7) -1.02000 (1,6,6) 7.87693
(1,5,7): (1,4,7) -4.65582 (1,5,6) 1.02000 (1,5,8) -4.45451 (1,6,7) 8.79743
(1,5,8): (1,4,8) -1.96696 (1,5,7) 4.45451 (1,5,9) -2.66414 (1,6,8) 0.836476
(1,5,9): (1,4,9) -0.720930 (1,5,8) 2.66414 (1,5,10) -1.10706 (1,6,9) -0.253652
(1,5,10): (1,4,10) -0.309191 (1,5,9) 1.10706 (1,6,10) -0.275608
(1,6,1): (1,5,1) 0.114907 (1,6,2) 0.427773 (1,7,1) -0.358993
(1,6,2): (1,5,2) 0.199277 (1,6,1) -0.427773 (1,6,3) 1.30251 (1,7,2) -0.873985
(1,6,3): (1,5,3) 0.225018 (1,6,2) -1.30251 (1,6,4) 3.85375 (1,7,3) -2.56172
(1,6,4): (1,5,4) -0.845998 (1,6,3) -3.85375 (1,6,5) 12.6674 (1,7,4) -7.74824
(1,6,5): (1,5,5) -8.79988 (1,6,4) -12.6674 (1,6,6) 0.166118 (1,7,5) -25.1372
(1,6,6): (1,5,6) -7.87693 (1,6,5) -0.166118 (1,6,7) -0.152189 (1,7,6) -38.1988
(1,6,7): (1,5,7) -8.79743 (1,6,6) 0.152189 (1,6,8) -12.6377 (1,7,7) -25.1453
(1,6,8): (1,5,8) -0.836476 (1,6,7) 12.6377 (1,6,9) -3.78255 (1,7,8) -7.77294
(1,6,9): (1,5,9) 0.253652 (1,6,8) 3.78255 (1,6,10) -1.12922 (1,7,9) -2.64111
(1,6,10): (1,5,10) 0.275608 (1,6,9) 1.12922 (1,7,10) -1.12470
(1,7,1): (1,6,1) 0.358993 (1,7,2) -8.503903E-02 (1,8,1) -0.256441
(1,7,2): (1,6,2) 0.873985 (1,7,1) 8.503903E-02 (1,7,3) -0.366331 (1,8,2) -0.643739
(1,7,3): (1,6,3) 2.56172 (1,7,2) 0.366331 (1,7,4) -1.16923 (1,8,3) -1.93866
(1,7,4): (1,6,4) 7.74824 (1,7,3) 1.16923 (1,7,5) -3.31424 (1,8,4) -5.90460
(1,7,5): (1,6,5) 25.1372 (1,7,4) 3.31424 (1,7,6) -10.4755 (1,8,5) -18.2602
(1,7,6): (1,6,6) 38.1988 (1,7,5) 10.4755 (1,7,7) 10.4832 (1,8,6) -59.2821
(1,7,7): (1,6,7) 25.1453 (1,7,6) -10.4832 (1,7,8) 3.32531 (1,8,7) -18.2656
(1,7,8): (1,6,8) 7.77294 (1,7,7) -3.32531 (1,7,9) 1.18384 (1,8,8) -5.92152
(1,7,9): (1,6,9) 2.64111 (1,7,8) -1.18384 (1,7,10) 0.366793 (1,8,9) -1.99419
(1,7,10): (1,6,10) 1.12470 (1,7,9) -0.366793 (1,8,10) -0.823868
(1,8,1): (1,7,1) 0.256441 (1,8,2) -0.471674 (1,9,1) 0.105704
(1,8,2): (1,7,2) 0.643739 (1,8,1) 0.471674 (1,8,3) -1.65764 (1,9,2) 0.285532
(1,8,3): (1,7,3) 1.93866 (1,8,2) 1.65764 (1,8,4) -5.10390 (1,9,3) 0.969123
(1,8,4): (1,7,4) 5.90460 (1,8,3) 5.10390 (1,8,5) -15.3225 (1,9,4) 3.46325
(1,8,5): (1,7,5) 18.2602 (1,8,4) 15.3225 (1,8,6) -47.2981 (1,9,5) 12.7878
(1,8,6): (1,7,6) 59.2821 (1,8,5) 47.2981 (1,8,7) 47.3023 (1,9,6) 50.3470
(1,8,7): (1,7,7) 18.2656 (1,8,6) -47.3023 (1,8,8) 15.3216 (1,9,7) 12.7899
(1,8,8): (1,7,8) 5.92152 (1,8,7) -15.3216 (1,8,9) 5.07854 (1,9,8) 3.46964
(1,8,9): (1,7,9) 1.99419 (1,8,8) -5.07854 (1,8,10) 1.53174 (1,9,9) 0.990996
(1,8,10): (1,7,10) 0.823868 (1,8,9) -1.53174 (1,9,10) 0.359988
(1,9,1): (1,8,1) -0.105704 (1,9,2) -0.291510 (1,10,1) 0.270191
(1,9,2): (1,8,2) -0.285532 (1,9,1) 0.291510 (1,9,3) -0.969273 (1,10,2) 0.649179
(1,9,3): (1,8,3) -0.969123 (1,9,2) 0.969273 (1,9,4) -2.56730 (1,10,3) 1.86045
(1,9,4): (1,8,4) -3.46325 (1,9,3) 2.56730 (1,9,5) -5.74632 (1,10,4) 5.38736
(1,9,5): (1,8,5) -12.7878 (1,9,4) 5.74632 (1,9,6) -10.8311 (1,10,5) 16.1170
(1,9,6): (1,8,6) -50.3470 (1,9,5) 10.8311 (1,9,7) 10.8358 (1,10,6) 26.8622
(1,9,7): (1,8,7) -12.7899 (1,9,6) -10.8358 (1,9,8) 5.75018 (1,10,7) 16.1222
(1,9,8): (1,8,8) -3.46964 (1,9,7) -5.75018 (1,9,9) 2.55849 (1,10,8) 5.40527
(1,9,9): (1,8,9) -0.990996 (1,9,8) -2.55849 (1,9,10) 0.897264 (1,10,9) 1.91963
(1,9,10): (1,8,10) -0.359988 (1,9,9) -0.897264 (1,10,10) 0.836526
(1,10,1): (1,9,1) -0.270191 (1,10,2) 8.620966E-02 (1,11,1) 0.139820
(1,10,2): (1,9,2) -0.649179 (1,10,1) -8.620966E-02 (1,10,3) 0.231960 (1,11,2) 0.291803
(1,10,3): (1,9,3) -1.86045 (1,10,2) -0.231960 (1,10,4) 0.873123 (1,11,3) 0.617440
(1,10,4): (1,9,4) -5.38736 (1,10,3) -0.873123 (1,10,5) 4.21387 (1,11,4) 0.798071
(1,10,5): (1,9,5) -16.1170 (1,10,4) -4.21387 (1,10,6) -1.54536 (1,11,5) -1.71712
(1,10,6): (1,9,6) -26.8622 (1,10,5) 1.54536 (1,10,7) 1.55431 (1,11,6) -6.780107E-02
(1,10,7): (1,9,7) -16.1222 (1,10,6) -1.55431 (1,10,8) -4.19724 (1,11,7) -1.71446
(1,10,8): (1,9,8) -5.40527 (1,10,7) 4.19724 (1,10,9) -0.840364 (1,11,8) 0.808058
(1,10,9): (1,9,9) -1.91963 (1,10,8) 0.840364 (1,10,10) -0.175313 (1,11,9) 0.649785
(1,10,10): (1,9,10) -0.836526 (1,10,9) 0.175313 (1,11,10) 0.387410
(1,11,1): (1,10,1) -0.139820 (1,11,2) 0.238112 (1,12,1) -2.702658E-02
(1,11,2): (1,10,2) -0.291803 (1,11,1) -0.238112 (1,11,3) 0.557407 (1,12,2) -4.924489E-02
(1,11,3): (1,10,3) -0.617440 (1,11,2) -0.557407 (1,11,4) 1.05418 (1,12,3) -0.140496
(1,11,4): (1,10,4) -0.798071 (1,11,3) -1.05418 (1,11,5) 1.64768 (1,12,4) -0.469666
(1,11,5): (1,10,5) 1.71712 (1,11,4) -1.64768 (1,11,6) 0.101509 (1,12,5) -1.31663
(1,11,6): (1,10,6) 6.780107E-02 (1,11,5) -0.101509 (1,11,7) -9.005581E-02 (1,12,6) -1.19026
(1,11,7): (1,10,7) 1.71446 (1,11,6) 9.005581E-02 (1,11,8) -1.62403 (1,12,7) -1.31777
(1,11,8): (1,10,8) -0.808058 (1,11,7) 1.62403 (1,11,9) -0.998915 (1,12,8) -0.472637
(1,11,9): (1,10,9) -0.649785 (1,11,8) 0.998915 (1,11,10) -0.437147 (1,12,9) -0.147218
(1,11,10): (1,10,10) -0.387410 (1,11,9) 0.437147 (1,12,10) -6.393430E-02
(1,12,1): (1,11,1) 2.702658E-02 (1,12,2) 0.215852 (1,13,1) -0.100418
(1,12,2): (1,11,2) 4.924489E-02 (1,12,1) -0.215852 (1,12,3) 0.465785 (1,13,2) -0.176033
(1,12,3): (1,11,3) 0.140496 (1,12,2) -0.465785 (1,12,4) 0.723177 (1,13,3) -0.353497
(1,12,4): (1,11,4) 0.469666 (1,12,3) -0.723177 (1,12,5) 0.798136 (1,13,4) -0.668430
(1,12,5): (1,11,5) 1.31663 (1,12,4) -0.798136 (1,12,6) 0.226588 (1,13,5) -1.07127
(1,12,6): (1,11,6) 1.19026 (1,12,5) -0.226588 (1,12,7) -0.216259 (1,13,6) -1.15368
(1,12,7): (1,11,7) 1.31777 (1,12,6) 0.216259 (1,12,8) -0.776506 (1,13,7) -1.07434
(1,12,8): (1,11,8) 0.472637 (1,12,7) 0.776506 (1,12,9) -0.671864 (1,13,8) -0.677921
(1,12,9): (1,11,9) 0.147218 (1,12,8) 0.671864 (1,12,10) -0.353628 (1,13,9) -0.378672
(1,12,10): (1,11,10) 6.393430E-02 (1,12,9) 0.353628 (1,13,10) -0.237307
(1,13,1): (1,12,1) 0.100418 (1,13,2) 0.140208 (1,14,1) -9.191994E-02
(1,13,2): (1,12,2) 0.176033 (1,13,1) -0.140208 (1,13,3) 0.288127 (1,14,2) -0.154843
(1,13,3): (1,12,3) 0.353497 (1,13,2) -0.288127 (1,13,4) 0.408078 (1,14,3) -0.289173
(1,13,4): (1,12,4) 0.668430 (1,13,3) -0.408078 (1,13,5) 0.396332 (1,14,4) -0.490421
(1,13,5): (1,12,5) 1.07127 (1,13,4) -0.396332 (1,13,6) 0.144882 (1,14,5) -0.697274
(1,13,6): (1,12,6) 1.15368 (1,13,5) -0.144882 (1,13,7) -0.137603 (1,14,6) -0.767851
(1,13,7): (1,12,7) 1.07434 (1,13,6) 0.137603 (1,13,8) -0.381199 (1,14,7) -0.700126
(1,13,8): (1,12,8) 0.677921 (1,13,7) 0.381199 (1,13,9) -0.372633 (1,14,8) -0.499303
(1,13,9): (1,12,9) 0.378672 (1,13,8) 0.372633 (1,13,10) -0.212297 (1,14,9) -0.312584
(1,13,10): (1,12,10) 0.237307 (1,13,9) 0.212297 (1,14,10) -0.210564
(1,14,1): (1,13,1) 9.191994E-02 (1,14,2) 7.729403E-02 (1,15,1) -4.921586E-02
(1,14,2): (1,13,2) 0.154843 (1,14,1) -7.729403E-02 (1,14,3) 0.153799 (1,15,2) -8.089189E-02
(1,14,3): (1,13,3) 0.289173 (1,14,2) -0.153799 (1,14,4) 0.206991 (1,15,3) -0.145903
(1,14,4): (1,13,4) 0.490421 (1,14,3) -0.206991 (1,14,5) 0.190078 (1,15,4) -0.237141
(1,14,5): (1,13,5) 0.697274 (1,14,4) -0.190078 (1,14,6) 7.472524E-02 (1,15,5) -0.324109
(1,14,6): (1,13,6) 0.767851 (1,14,5) -7.472524E-02 (1,14,7) -7.028609E-02 (1,15,6) -0.357392
(1,14,7): (1,13,7) 0.700126 (1,14,6) 7.028609E-02 (1,14,8) -0.180992 (1,15,7) -0.325670
(1,14,8): (1,13,8) 0.499303 (1,14,7) 0.180992 (1,14,9) -0.186144 (1,15,8) -0.241986
(1,14,9): (1,13,9) 0.312584 (1,14,8) 0.186144 (1,14,10) -0.110378 (1,15,9) -0.158547
(1,14,10): (1,13,10) 0.210564 (1,14,9) 0.110378 (1,15,10) -0.110462
(1,15,1): (1,14,1) 4.921586E-02 (1,15,2) 4.561913E-02
(1,15,2): (1,14,2) 8.089189E-02 (1,15,1) -4.561913E-02 (1,15,3) 8.878278E-02
(1,15,3): (1,14,3) 0.145903 (1,15,2) -8.878278E-02 (1,15,4) 0.115780
(1,15,4): (1,14,4) 0.237141 (1,15,3) -0.115780 (1,15,5) 0.103224
(1,15,5): (1,14,5) 0.324109 (1,15,4) -0.103224 (1,15,6) 4.153332E-02
(1,15,6): (1,14,6) 0.357392 (1,15,5) -4.153332E-02 (1,15,7) -3.865263E-02
(1,15,7): (1,14,7) 0.325670 (1,15,6) 3.865263E-02 (1,15,8) -9.742635E-02
(1,15,8): (1,14,8) 0.241986 (1,15,7) 9.742635E-02 (1,15,9) -0.102750
(1,15,9): (1,14,9) 0.158547 (1,15,8) 0.102750 (1,15,10) -6.231608E-02
(1,15,10): (1,14,10) 0.110462 (1,15,9) 6.231608E-02

 WEL PACKAGE (WEL-1) FLOW RATES   PERIOD      2   STEP       63
 ----------------------------------------------------------------------------------------
   NUMBER   CELLID                    RATE       NAME                                    
 ----------------------------------------------------------------------------------------
     1      (1,8,6)              -204.49495      WEL                                     
 ----------------------------------------------------------------------------------------




 API PACKAGE (MAR) FLOW RATES   PERIOD      2   STEP       63
 -----------------------------------------------
   NUMBER   CELLID                    RATE      
 -----------------------------------------------
     1      (1,6,5)               46.666667     
     2      (1,6,6)               46.666667     
     3      (1,6,7)               46.666667     
     4      (1,10,5)              21.498315     
     5      (1,10,6)              21.498315     
     6      (1,10,7)              21.498315     
 -----------------------------------------------



1
  HEAD IN LAYER   1 AT END OF TIME STEP  63 IN STRESS PERIOD    2
  ---------------------------------------------------------------------------

            1           2           3           4           5           6           7           8           9          10
 ........................................................................................................................
   1   1.0036E-02  1.5958E-02  2.7768E-02  4.3691E-02  5.8363E-02  6.4353E-02  5.8698E-02  4.4712E-02  3.0368E-02  2.1862E-02
   2   1.6616E-02  2.7329E-02  4.9427E-02  8.0672E-02  0.1109      0.1230      0.1114      8.2304E-02  5.3678E-02  3.7274E-02
   3   2.9707E-02  5.0937E-02  9.6824E-02  0.1663      0.2388      0.2669      0.2397      0.1691      0.1043      6.9031E-02
   4   4.6268E-02  8.3250E-02  0.1687      0.3126      0.4842      0.5428      0.4855      0.3167      0.1800      0.1119    
   5   5.6393E-02  0.1071      0.2369      0.4992      0.9107       1.005      0.9122      0.5040      0.2503      0.1423    
   6   4.4966E-02  8.7373E-02  0.2149      0.5792       1.665       1.679       1.666      0.5830      0.2256      0.1152    
   7   9.2278E-03  7.3178E-04 -3.5899E-02 -0.1532     -0.4898      -1.591     -0.4891     -0.1515     -3.2687E-02  3.9773E-03
   8  -1.6393E-02 -6.3637E-02 -0.2305     -0.7529      -2.410      -8.641      -2.410     -0.7527     -0.2328     -7.8377E-02
   9  -5.8161E-03 -3.4984E-02 -0.1323     -0.3924     -0.9905      -2.193     -0.9901     -0.3916     -0.1323     -4.2225E-02
  10   2.1146E-02  2.9741E-02  5.2816E-02  0.1389      0.5388      0.3921      0.5396      0.1414      5.8514E-02  4.1085E-02
  11   3.5079E-02  5.8751E-02  0.1139      0.2170      0.3758      0.3856      0.3769      0.2204      0.1227      7.9520E-02
  12   3.2386E-02  5.3856E-02  0.1000      0.1711      0.2489      0.2710      0.2500      0.1742      0.1082      7.3177E-02
  13   2.2377E-02  3.6347E-02  6.4973E-02  0.1054      0.1444      0.1587      0.1451      0.1076      7.0700E-02  4.9619E-02
  14   1.3205E-02  2.0918E-02  3.6243E-02  5.6825E-02  7.5690E-02  8.3101E-02  7.6130E-02  5.8168E-02  3.9661E-02  2.8667E-02
  15   8.2899E-03  1.2846E-02  2.1705E-02  3.3245E-02  4.3522E-02  4.7656E-02  4.3809E-02  3.4109E-02  2.3869E-02  1.7652E-02

 HEAD WILL BE SAVED ON UNIT 1043 AT END OF TIME STEP   63, STRESS PERIOD    2


  VOLUME BUDGET FOR ENTIRE MODEL AT END OF TIME STEP   63, STRESS PERIOD   2
  ---------------------------------------------------------------------------------------------------

     CUMULATIVE VOLUME      L**3       RATES FOR THIS TIME STEP      L**3/T          PACKAGE NAME    
     ------------------                 ------------------------                     ----------------

           IN:                                      IN:
           ---                                      ---
              STO-SS =          23.3612                STO-SS =       1.6897E-02     STORAGE                          
              STO-SY =       55930.7860                STO-SY =          34.9774     STORAGE                          
                 WEL =           0.0000                   WEL =           0.0000     WEL-1                            
                 API =      145453.7785                   API =         204.4949     MAR                              
                 CHD =       2.8247E-08                   CHD =           0.0000     CHD_0                            

            TOTAL IN =      201407.9257              TOTAL IN =         239.4893

          OUT:                                     OUT:
          ----                                     ----
              STO-SS =          29.0275                STO-SS =       1.7927E-02     STORAGE                          
              STO-SY =       55925.1197                STO-SY =          34.9764     STORAGE                          
                 WEL =      145453.7784                   WEL =         204.4949     WEL-1                            
                 API =           0.0000                   API =           0.0000     MAR                              
                 CHD =       3.0388E-08                   CHD =           0.0000     CHD_0                            

           TOTAL OUT =      201407.9257             TOTAL OUT =         239.4893

            IN - OUT =       1.4636E-06              IN - OUT =       8.5005E-09

 PERCENT DISCREPANCY =           0.00     PERCENT DISCREPANCY =           0.00




         TIME SUMMARY AT END OF TIME STEP   63 IN STRESS PERIOD    2
                    SECONDS     MINUTES      HOURS       DAYS        YEARS
                    -----------------------------------------------------------
   TIME STEP LENGTH 8.64000E+05  14400.      240.00      10.000     2.73785E-02
 STRESS PERIOD TIME 5.44320E+07 9.07200E+05  15120.      630.00      1.7248    
         TOTAL TIME 5.45184E+07 9.08640E+05  15144.      631.00      1.7276    


end timestep


start timestep kper="2" kstp="64" mode="normal"

 UBDSV1 SAVING           STO-SS ON UNIT   1042 AT TIME STEP     64, STRESS PERIOD      2
 UBDSV1 SAVING           STO-SY ON UNIT   1042 AT TIME STEP     64, STRESS PERIOD      2
 UBDSV1 SAVING     FLOW-JA-FACE ON UNIT   1042 AT TIME STEP     64, STRESS PERIOD      2
 UBDSV06 SAVING       DATA-SPDIS IN MODEL GWF              PACKAGE NPF             CONNECTED TO MODEL GWF              PACKAGE NPF              ON UNIT   1042 AT TIME STEP     64, STRESS PERIOD      2
 UBDSV06 SAVING              WEL IN MODEL GWF              PACKAGE GWF             CONNECTED TO MODEL GWF              PACKAGE WEL-1            ON UNIT   1042 AT TIME STEP     64, STRESS PERIOD      2
 UBDSV06 SAVING              API IN MODEL GWF              PACKAGE GWF             CONNECTED TO MODEL GWF              PACKAGE MAR              ON UNIT   1042 AT TIME STEP     64, STRESS PERIOD      2
 UBDSV06 SAVING              CHD IN MODEL GWF              PACKAGE GWF             CONNECTED TO MODEL GWF              PACKAGE CHD_0            ON UNIT   1042 AT TIME STEP     64, STRESS PERIOD      2

    CALCULATED INTERCELL FLOW FOR PERIOD 2 STEP 64
(1,1,1): (1,1,2) 6.173663E-02 (1,2,1) 6.828998E-02
(1,1,2): (1,1,1) -6.173663E-02 (1,1,3) 0.122774 (1,2,2) 0.117235
(1,1,3): (1,1,2) -0.122774 (1,1,4) 0.165031 (1,2,3) 0.222340
(1,1,4): (1,1,3) -0.165031 (1,1,5) 0.151773 (1,2,4) 0.379141
(1,1,5): (1,1,4) -0.151773 (1,1,6) 6.198046E-02 (1,2,5) 0.538438
(1,1,6): (1,1,5) -6.198046E-02 (1,1,7) -5.831237E-02 (1,2,6) 0.602356
(1,1,7): (1,1,6) 5.831237E-02 (1,1,8) -0.144369 (1,2,7) 0.540527
(1,1,8): (1,1,7) 0.144369 (1,1,9) -0.148220 (1,2,8) 0.385666
(1,1,9): (1,1,8) 0.148220 (1,1,10) -8.797529E-02 (1,2,9) 0.239697
(1,1,10): (1,1,9) 8.797529E-02 (1,2,10) 0.159178
(1,2,1): (1,1,1) -6.828998E-02 (1,2,2) 0.110679 (1,3,1) 0.135054
(1,2,2): (1,1,2) -0.117235 (1,2,1) -0.110679 (1,2,3) 0.227884 (1,3,2) 0.242260
(1,2,3): (1,1,3) -0.222340 (1,2,2) -0.227884 (1,2,4) 0.321744 (1,3,3) 0.485578
(1,2,4): (1,1,4) -0.379141 (1,2,3) -0.321744 (1,2,5) 0.310718 (1,3,4) 0.880201
(1,2,5): (1,1,5) -0.538438 (1,2,4) -0.310718 (1,2,6) 0.125604 (1,3,5) 1.32070
(1,2,6): (1,1,6) -0.602356 (1,2,5) -0.125604 (1,2,7) -0.119853 (1,3,6) 1.48812
(1,2,7): (1,1,7) -0.540527 (1,2,6) 0.119853 (1,2,8) -0.298867 (1,3,7) 1.32469
(1,2,8): (1,1,8) -0.385666 (1,2,7) 0.298867 (1,2,9) -0.294058 (1,3,8) 0.892699
(1,2,9): (1,1,9) -0.239697 (1,2,8) 0.294058 (1,2,10) -0.168437 (1,3,9) 0.519427
(1,2,10): (1,1,10) -0.159178 (1,2,9) 0.168437 (1,3,10) 0.326691
(1,3,1): (1,2,1) -0.135054 (1,3,2) 0.217859 (1,4,1) 0.169302
(1,3,2): (1,2,2) -0.242260 (1,3,1) -0.217859 (1,3,3) 0.471168 (1,4,2) 0.329342
(1,3,3): (1,2,3) -0.485578 (1,3,2) -0.471168 (1,3,4) 0.715744 (1,4,3) 0.734890
(1,3,4): (1,2,4) -0.880201 (1,3,3) -0.715744 (1,3,5) 0.748855 (1,4,4) 1.51317
(1,3,5): (1,2,5) -1.32070 (1,3,4) -0.748855 (1,3,6) 0.291157 (1,4,5) 2.57855
(1,3,6): (1,2,6) -1.48812 (1,3,5) -0.291157 (1,3,7) -0.281452 (1,4,6) 2.91491
(1,3,7): (1,2,7) -1.32469 (1,3,6) 0.281452 (1,3,8) -0.728437 (1,4,7) 2.58328
(1,3,8): (1,2,8) -0.892699 (1,3,7) 0.728437 (1,3,9) -0.666521 (1,4,8) 1.52796
(1,3,9): (1,2,9) -0.519427 (1,3,8) 0.666521 (1,3,10) -0.360876 (1,4,9) 0.776072
(1,3,10): (1,2,10) -0.326691 (1,3,9) 0.360876 (1,4,10) 0.437969
(1,4,1): (1,3,1) -0.169302 (1,4,2) 0.377975 (1,5,1) 0.101075
(1,4,2): (1,3,2) -0.329342 (1,4,1) -0.377975 (1,4,3) 0.877271 (1,5,2) 0.239095
(1,4,3): (1,3,3) -0.734890 (1,4,2) -0.877271 (1,4,4) 1.49389 (1,5,3) 0.694070
(1,4,4): (1,3,4) -1.51317 (1,4,3) -1.49389 (1,4,5) 1.80694 (1,5,4) 1.95214
(1,4,5): (1,3,5) -2.57855 (1,4,4) -1.80694 (1,4,6) 0.620875 (1,5,5) 4.64346
(1,4,6): (1,3,6) -2.91491 (1,4,5) -0.620875 (1,4,7) -0.606488 (1,5,6) 5.07450
(1,4,7): (1,3,7) -2.58328 (1,4,6) 0.606488 (1,4,8) -1.77620 (1,5,7) 4.64616
(1,4,8): (1,3,8) -1.52796 (1,4,7) 1.77620 (1,4,9) -1.41764 (1,5,8) 1.95991
(1,4,9): (1,3,9) -0.776072 (1,4,8) 1.41764 (1,4,10) -0.698730 (1,5,9) 0.716654
(1,4,10): (1,3,10) -0.437969 (1,4,9) 0.698730 (1,5,10) 0.306648
(1,5,1): (1,4,1) -0.101075 (1,5,2) 0.516369 (1,6,1) -0.120598
(1,5,2): (1,4,2) -0.239095 (1,5,1) -0.516369 (1,5,3) 1.33501 (1,6,2) -0.208157
(1,5,3): (1,4,3) -0.694070 (1,5,2) -1.33501 (1,5,4) 2.76105 (1,6,3) -0.239574
(1,5,4): (1,4,4) -1.95214 (1,5,3) -2.76105 (1,5,5) 4.49500 (1,6,4) 0.825283
(1,5,5): (1,4,5) -4.64346 (1,5,4) -4.49500 (1,5,6) 1.03890 (1,6,5) 8.77439
(1,5,6): (1,4,6) -5.07450 (1,5,5) -1.03890 (1,5,7) -1.02183 (1,6,6) 7.85159
(1,5,7): (1,4,7) -4.64616 (1,5,6) 1.02183 (1,5,8) -4.45833 (1,6,7) 8.77175
(1,5,8): (1,4,8) -1.95991 (1,5,7) 4.45833 (1,5,9) -2.66877 (1,6,8) 0.815163
(1,5,9): (1,4,9) -0.716654 (1,5,8) 2.66877 (1,5,10) -1.11026 (1,6,9) -0.269728
(1,5,10): (1,4,10) -0.306648 (1,5,9) 1.11026 (1,6,10) -0.287912
(1,6,1): (1,5,1) 0.120598 (1,6,2) 0.428547 (1,7,1) -0.367344
(1,6,2): (1,5,2) 0.208157 (1,6,1) -0.428547 (1,6,3) 1.30329 (1,7,2) -0.886566
(1,6,3): (1,5,3) 0.239574 (1,6,2) -1.30329 (1,6,4) 3.85439 (1,7,3) -2.58167
(1,6,4): (1,5,4) -0.825283 (1,6,3) -3.85439 (1,6,5) 12.6692 (1,7,4) -7.77577
(1,6,5): (1,5,5) -8.77439 (1,6,4) -12.6692 (1,6,6) 0.168673 (1,7,5) -25.1686
(1,6,6): (1,5,6) -7.85159 (1,6,5) -0.168673 (1,6,7) -0.154142 (1,7,6) -38.2256
(1,6,7): (1,5,7) -8.77175 (1,6,6) 0.154142 (1,6,8) -12.6386 (1,7,7) -25.1770
(1,6,8): (1,5,8) -0.815163 (1,6,7) 12.6386 (1,6,9) -3.78193 (1,7,8) -7.80139
(1,6,9): (1,5,9) 0.269728 (1,6,8) 3.78193 (1,6,10) -1.12861 (1,7,9) -2.66329
(1,6,10): (1,5,10) 0.287912 (1,6,9) 1.12861 (1,7,10) -1.14214
(1,7,1): (1,6,1) 0.367344 (1,7,2) -8.842237E-02 (1,8,1) -0.262818
(1,7,2): (1,6,2) 0.886566 (1,7,1) 8.842237E-02 (1,7,3) -0.372578 (1,8,2) -0.653930
(1,7,3): (1,6,3) 2.58167 (1,7,2) 0.372578 (1,7,4) -1.17489 (1,8,3) -1.95606
(1,7,4): (1,6,4) 7.77577 (1,7,3) 1.17489 (1,7,5) -3.31279 (1,8,4) -5.93017
(1,7,5): (1,6,5) 25.1686 (1,7,4) 3.31279 (1,7,6) -10.4666 (1,8,5) -18.2875
(1,7,6): (1,6,6) 38.2256 (1,7,5) 10.4666 (1,7,7) 10.4746 (1,8,6) -59.2839
(1,7,7): (1,6,7) 25.1770 (1,7,6) -10.4746 (1,7,8) 3.32412 (1,8,7) -18.2930
(1,7,8): (1,6,8) 7.80139 (1,7,7) -3.32412 (1,7,9) 1.18939 (1,8,8) -5.94775
(1,7,9): (1,6,9) 2.66329 (1,7,8) -1.18939 (1,7,10) 0.371784 (1,8,9) -2.01326
(1,7,10): (1,6,10) 1.14214 (1,7,9) -0.371784 (1,8,10) -0.837850
(1,8,1): (1,7,1) 0.262818 (1,8,2) -0.478853 (1,9,1) 0.104704
(1,8,2): (1,7,2) 0.653930 (1,8,1) 0.478853 (1,8,3) -1.67102 (1,9,2) 0.282488
(1,8,3): (1,7,3) 1.95606 (1,8,2) 1.67102 (1,8,4) -5.11717 (1,9,3) 0.960387
(1,8,4): (1,7,4) 5.93017 (1,8,3) 5.11717 (1,8,5) -15.3189 (1,9,4) 3.44178
(1,8,5): (1,7,5) 18.2875 (1,8,4) 15.3189 (1,8,6) -47.2457 (1,9,5) 12.7391
(1,8,6): (1,7,6) 59.2839 (1,8,5) 47.2457 (1,8,7) 47.2500 (1,9,6) 50.2308
(1,8,7): (1,7,7) 18.2930 (1,8,6) -47.2500 (1,8,8) 15.3178 (1,9,7) 12.7412
(1,8,8): (1,7,8) 5.94775 (1,8,7) -15.3178 (1,8,9) 5.09065 (1,9,8) 3.44815
(1,8,9): (1,7,9) 2.01326 (1,8,8) -5.09065 (1,8,10) 1.54168 (1,9,9) 0.982069
(1,8,10): (1,7,10) 0.837850 (1,8,9) -1.54168 (1,9,10) 0.356080
(1,9,1): (1,8,1) -0.104704 (1,9,2) -0.300719 (1,10,1) 0.274211
(1,9,2): (1,8,2) -0.282488 (1,9,1) 0.300719 (1,9,3) -0.988237 (1,10,2) 0.654017
(1,9,3): (1,8,3) -0.960387 (1,9,2) 0.988237 (1,9,4) -2.59257 (1,10,3) 1.86478
(1,9,4): (1,8,4) -3.44178 (1,9,3) 2.59257 (1,9,5) -5.76579 (1,10,4) 5.38404
(1,9,5): (1,8,5) -12.7391 (1,9,4) 5.76579 (1,9,6) -10.8235 (1,10,5) 16.0835
(1,9,6): (1,8,6) -50.2308 (1,9,5) 10.8235 (1,9,7) 10.8283 (1,10,6) 26.8065
(1,9,7): (1,8,7) -12.7412 (1,9,6) -10.8283 (1,9,8) 5.76945 (1,10,7) 16.0890
(1,9,8): (1,8,8) -3.44815 (1,9,7) -5.76945 (1,9,9) 2.58246 (1,10,8) 5.40243
(1,9,9): (1,8,9) -0.982069 (1,9,8) -2.58246 (1,9,10) 0.912128 (1,10,9) 1.92507
(1,9,10): (1,8,10) -0.356080 (1,9,9) -0.912128 (1,10,10) 0.843462
(1,10,1): (1,9,1) -0.274211 (1,10,2) 7.781716E-02 (1,11,1) 0.145600
(1,10,2): (1,9,2) -0.654017 (1,10,1) -7.781716E-02 (1,10,3) 0.212580 (1,11,2) 0.301192
(1,10,3): (1,9,3) -1.86478 (1,10,2) -0.212580 (1,10,4) 0.840719 (1,11,3) 0.634094
(1,10,4): (1,9,4) -5.38404 (1,10,3) -0.840719 (1,10,5) 4.16669 (1,11,4) 0.826077
(1,10,5): (1,9,5) -16.0835 (1,10,4) -4.16669 (1,10,6) -1.55590 (1,11,5) -1.66738
(1,10,6): (1,9,6) -26.8065 (1,10,5) 1.55590 (1,10,7) 1.56511 (1,11,6) -1.693878E-02
(1,10,7): (1,9,7) -16.0890 (1,10,6) -1.56511 (1,10,8) -4.14994 (1,11,7) -1.66454
(1,10,8): (1,9,8) -5.40243 (1,10,7) 4.14994 (1,10,9) -0.808610 (1,11,8) 0.836621
(1,10,9): (1,9,9) -1.92507 (1,10,8) 0.808610 (1,10,10) -0.159009 (1,11,9) 0.667923
(1,10,10): (1,9,10) -0.843462 (1,10,9) 0.159009 (1,11,10) 0.400293
(1,11,1): (1,10,1) -0.145600 (1,11,2) 0.233305 (1,12,1) -2.332967E-02
(1,11,2): (1,10,2) -0.301192 (1,11,1) -0.233305 (1,11,3) 0.545194 (1,12,2) -4.188390E-02
(1,11,3): (1,10,3) -0.634094 (1,11,2) -0.545194 (1,11,4) 1.03307 (1,12,3) -0.125154
(1,11,4): (1,10,4) -0.826077 (1,11,3) -1.03307 (1,11,5) 1.62298 (1,12,4) -0.441958
(1,11,5): (1,10,5) 1.66738 (1,11,4) -1.62298 (1,11,6) 9.295819E-02 (1,12,5) -1.27454
(1,11,6): (1,10,6) 1.693878E-02 (1,11,5) -9.295819E-02 (1,11,7) -8.107953E-02 (1,12,6) -1.14372
(1,11,7): (1,10,7) 1.66454 (1,11,6) 8.107953E-02 (1,11,8) -1.59884 (1,12,7) -1.27562
(1,11,8): (1,10,8) -0.836621 (1,11,7) 1.59884 (1,11,9) -0.977527 (1,12,8) -0.444673
(1,11,9): (1,10,9) -0.667923 (1,11,8) 0.977527 (1,11,10) -0.426011 (1,12,9) -0.130990
(1,11,10): (1,10,10) -0.400293 (1,11,9) 0.426011 (1,12,10) -5.400751E-02
(1,12,1): (1,11,1) 2.332967E-02 (1,12,2) 0.214715 (1,13,1) -9.993885E-02
(1,12,2): (1,11,2) 4.188390E-02 (1,12,1) -0.214715 (1,12,3) 0.461583 (1,13,2) -0.173517
(1,12,3): (1,11,3) 0.125154 (1,12,2) -0.461583 (1,12,4) 0.714479 (1,13,3) -0.346214
(1,12,4): (1,11,4) 0.441958 (1,12,3) -0.714479 (1,12,5) 0.787731 (1,13,4) -0.653527
(1,12,5): (1,11,5) 1.27454 (1,12,4) -0.787731 (1,12,6) 0.222488 (1,13,5) -1.04821
(1,12,6): (1,11,6) 1.14372 (1,12,5) -0.222488 (1,12,7) -0.211675 (1,13,6) -1.12747
(1,12,7): (1,11,7) 1.27562 (1,12,6) 0.211675 (1,12,8) -0.765412 (1,13,7) -1.05134
(1,12,8): (1,11,8) 0.444673 (1,12,7) 0.765412 (1,12,9) -0.662249 (1,13,8) -0.663115
(1,12,9): (1,11,9) 0.130990 (1,12,8) 0.662249 (1,12,10) -0.348807 (1,13,9) -0.371355
(1,12,10): (1,11,10) 5.400751E-02 (1,12,9) 0.348807 (1,13,10) -0.234051
(1,13,1): (1,12,1) 9.993885E-02 (1,13,2) 0.141107 (1,14,1) -9.324060E-02
(1,13,2): (1,12,2) 0.173517 (1,13,1) -0.141107 (1,13,3) 0.288691 (1,14,2) -0.155598
(1,13,3): (1,12,3) 0.346214 (1,13,2) -0.288691 (1,13,4) 0.406987 (1,14,3) -0.288291
(1,13,4): (1,12,4) 0.653527 (1,13,3) -0.406987 (1,13,5) 0.394020 (1,14,4) -0.486557
(1,13,5): (1,12,5) 1.04821 (1,13,4) -0.394020 (1,13,6) 0.143880 (1,14,5) -0.690087
(1,13,6): (1,12,6) 1.12747 (1,13,5) -0.143880 (1,13,7) -0.136181 (1,14,6) -0.759293
(1,13,7): (1,12,7) 1.05134 (1,13,6) 0.136181 (1,13,8) -0.378233 (1,14,7) -0.693048
(1,13,8): (1,12,8) 0.663115 (1,13,7) 0.378233 (1,13,9) -0.370491 (1,14,8) -0.495693
(1,13,9): (1,12,9) 0.371355 (1,13,8) 0.370491 (1,13,10) -0.211533 (1,14,9) -0.312120
(1,13,10): (1,12,10) 0.234051 (1,13,9) 0.211533 (1,14,10) -0.211746
(1,14,1): (1,13,1) 9.324060E-02 (1,14,2) 7.875912E-02 (1,15,1) -5.042439E-02
(1,14,2): (1,13,2) 0.155598 (1,14,1) -7.875912E-02 (1,14,3) 0.155997 (1,15,2) -8.212327E-02
(1,14,3): (1,13,3) 0.288291 (1,14,2) -0.155997 (1,14,4) 0.208874 (1,15,3) -0.146929
(1,14,4): (1,13,4) 0.486557 (1,14,3) -0.208874 (1,14,5) 0.191070 (1,15,4) -0.237518
(1,14,5): (1,13,5) 0.690087 (1,14,4) -0.191070 (1,14,6) 7.508104E-02 (1,15,5) -0.323628
(1,14,6): (1,13,6) 0.759293 (1,14,5) -7.508104E-02 (1,14,7) -7.033045E-02 (1,15,6) -0.356541
(1,14,7): (1,13,7) 0.693048 (1,14,6) 7.033045E-02 (1,14,8) -0.181476 (1,15,7) -0.325264
(1,14,8): (1,13,8) 0.495693 (1,14,7) 0.181476 (1,14,9) -0.187142 (1,15,8) -0.242549
(1,14,9): (1,13,9) 0.312120 (1,14,8) 0.187142 (1,14,10) -0.111259 (1,15,9) -0.159928
(1,14,10): (1,13,10) 0.211746 (1,14,9) 0.111259 (1,15,10) -0.112226
(1,15,1): (1,14,1) 5.042439E-02 (1,15,2) 4.706129E-02
(1,15,2): (1,14,2) 8.212327E-02 (1,15,1) -4.706129E-02 (1,15,3) 9.118510E-02
(1,15,3): (1,14,3) 0.146929 (1,15,2) -9.118510E-02 (1,15,4) 0.118311
(1,15,4): (1,14,4) 0.237518 (1,15,3) -0.118311 (1,15,5) 0.105072
(1,15,5): (1,14,5) 0.323628 (1,15,4) -0.105072 (1,15,6) 4.225850E-02
(1,15,6): (1,14,6) 0.356541 (1,15,5) -4.225850E-02 (1,15,7) -3.914079E-02
(1,15,7): (1,14,7) 0.325264 (1,15,6) 3.914079E-02 (1,15,8) -9.887817E-02
(1,15,8): (1,14,8) 0.242549 (1,15,7) 9.887817E-02 (1,15,9) -0.104565
(1,15,9): (1,14,9) 0.159928 (1,15,8) 0.104565 (1,15,10) -6.358014E-02
(1,15,10): (1,14,10) 0.112226 (1,15,9) 6.358014E-02

 WEL PACKAGE (WEL-1) FLOW RATES   PERIOD      2   STEP       64
 ----------------------------------------------------------------------------------------
   NUMBER   CELLID                    RATE       NAME                                    
 ----------------------------------------------------------------------------------------
     1      (1,8,6)              -204.26777      WEL                                     
 ----------------------------------------------------------------------------------------




 API PACKAGE (MAR) FLOW RATES   PERIOD      2   STEP       64
 -----------------------------------------------
   NUMBER   CELLID                    RATE      
 -----------------------------------------------
     1      (1,6,5)               46.666667     
     2      (1,6,6)               46.666667     
     3      (1,6,7)               46.666667     
     4      (1,10,5)              21.422589     
     5      (1,10,6)              21.422589     
     6      (1,10,7)              21.422589     
 -----------------------------------------------



1
  HEAD IN LAYER   1 AT END OF TIME STEP  64 IN STRESS PERIOD    2
  ---------------------------------------------------------------------------

            1           2           3           4           5           6           7           8           9          10
 ........................................................................................................................
   1   1.0686E-02  1.6849E-02  2.9091E-02  4.5519E-02  6.0605E-02  6.6762E-02  6.0969E-02  4.6620E-02  3.1867E-02  2.3097E-02
   2   1.7503E-02  2.8539E-02  5.1211E-02  8.3121E-02  0.1138      0.1262      0.1144      8.4862E-02  5.5704E-02  3.8953E-02
   3   3.0966E-02  5.2638E-02  9.9292E-02  0.1697      0.2428      0.2711      0.2437      0.1726      0.1071      7.1391E-02
   4   4.7816E-02  8.5294E-02  0.1715      0.3163      0.4886      0.5475      0.4900      0.3207      0.1833      0.1147    
   5   5.7865E-02  0.1089      0.2393      0.5022      0.9141       1.008      0.9156      0.5072      0.2532      0.1449    
   6   4.5875E-02  8.8354E-02  0.2159      0.5802       1.666       1.681       1.667      0.5842      0.2269      0.1165    
   7   9.3083E-03  4.7431E-04 -3.6782E-02 -0.1547     -0.4912      -1.592     -0.4904     -0.1529     -3.3525E-02  3.6399E-03
   8  -1.6949E-02 -6.4916E-02 -0.2331     -0.7570      -2.414      -8.643      -2.414     -0.7569     -0.2355     -8.0115E-02
   9  -6.4718E-03 -3.6563E-02 -0.1357     -0.3986     -0.9991      -2.202     -0.9986     -0.3978     -0.1360     -4.4348E-02
  10   2.0892E-02  2.8652E-02  4.9804E-02  0.1328      0.5285      0.3807      0.5294      0.1353      5.5478E-02  3.9665E-02
  11   3.5401E-02  5.8595E-02  0.1125      0.2137      0.3702      0.3791      0.3713      0.2171      0.1215      7.9379E-02
  12   3.3076E-02  5.4431E-02  0.1001      0.1704      0.2473      0.2689      0.2483      0.1736      0.1085      7.4021E-02
  13   2.3115E-02  3.7174E-02  6.5854E-02  0.1061      0.1450      0.1591      0.1457      0.1084      7.1790E-02  5.0788E-02
  14   1.3813E-02  2.1671E-02  3.7213E-02  5.7980E-02  7.6941E-02  8.4387E-02  7.7413E-02  5.9404E-02  4.0801E-02  2.9720E-02
  15   8.7771E-03  1.3477E-02  2.2575E-02  3.4366E-02  4.4826E-02  4.9031E-02  4.5136E-02  3.5293E-02  2.4873E-02  1.8531E-02

 HEAD WILL BE SAVED ON UNIT 1043 AT END OF TIME STEP   64, STRESS PERIOD    2


  VOLUME BUDGET FOR ENTIRE MODEL AT END OF TIME STEP   64, STRESS PERIOD   2
  ---------------------------------------------------------------------------------------------------

     CUMULATIVE VOLUME      L**3       RATES FOR THIS TIME STEP      L**3/T          PACKAGE NAME    
     ------------------                 ------------------------                     ----------------

           IN:                                      IN:
           ---                                      ---
              STO-SS =          23.5282                STO-SS =       1.6703E-02     STORAGE                          
              STO-SY =       56276.4885                STO-SY =          34.5702     STORAGE                          
                 WEL =           0.0000                   WEL =           0.0000     WEL-1                            
                 API =      147496.4561                   API =         204.2678     MAR                              
                 CHD =       2.8247E-08                   CHD =           0.0000     CHD_0                            

            TOTAL IN =      203796.4729              TOTAL IN =         238.8547

          OUT:                                     OUT:
          ----                                     ----
              STO-SS =          29.2047                STO-SS =       1.7719E-02     STORAGE                          
              STO-SY =       56270.8121                STO-SY =          34.5692     STORAGE                          
                 WEL =      147496.4561                   WEL =         204.2678     WEL-1                            
                 API =           0.0000                   API =           0.0000     MAR                              
                 CHD =       3.0388E-08                   CHD =           0.0000     CHD_0                            

           TOTAL OUT =      203796.4729             TOTAL OUT =         238.8547

            IN - OUT =       1.5510E-06              IN - OUT =       8.7422E-09

 PERCENT DISCREPANCY =           0.00     PERCENT DISCREPANCY =           0.00




         TIME SUMMARY AT END OF TIME STEP   64 IN STRESS PERIOD    2
                    SECONDS     MINUTES      HOURS       DAYS        YEARS
                    -----------------------------------------------------------
   TIME STEP LENGTH 8.64000E+05  14400.      240.00      10.000     2.73785E-02
 STRESS PERIOD TIME 5.52960E+07 9.21600E+05  15360.      640.00      1.7522    
         TOTAL TIME 5.53824E+07 9.23040E+05  15384.      641.00      1.7550    


end timestep


start timestep kper="2" kstp="65" mode="normal"

 UBDSV1 SAVING           STO-SS ON UNIT   1042 AT TIME STEP     65, STRESS PERIOD      2
 UBDSV1 SAVING           STO-SY ON UNIT   1042 AT TIME STEP     65, STRESS PERIOD      2
 UBDSV1 SAVING     FLOW-JA-FACE ON UNIT   1042 AT TIME STEP     65, STRESS PERIOD      2
 UBDSV06 SAVING       DATA-SPDIS IN MODEL GWF              PACKAGE NPF             CONNECTED TO MODEL GWF              PACKAGE NPF              ON UNIT   1042 AT TIME STEP     65, STRESS PERIOD      2
 UBDSV06 SAVING              WEL IN MODEL GWF              PACKAGE GWF             CONNECTED TO MODEL GWF              PACKAGE WEL-1            ON UNIT   1042 AT TIME STEP     65, STRESS PERIOD      2
 UBDSV06 SAVING              API IN MODEL GWF              PACKAGE GWF             CONNECTED TO MODEL GWF              PACKAGE MAR              ON UNIT   1042 AT TIME STEP     65, STRESS PERIOD      2
 UBDSV06 SAVING              CHD IN MODEL GWF              PACKAGE GWF             CONNECTED TO MODEL GWF              PACKAGE CHD_0            ON UNIT   1042 AT TIME STEP     65, STRESS PERIOD      2

    CALCULATED INTERCELL FLOW FOR PERIOD 2 STEP 65
(1,1,1): (1,1,2) 6.417220E-02 (1,2,1) 7.065885E-02
(1,1,2): (1,1,1) -6.417220E-02 (1,1,3) 0.127130 (1,2,2) 0.120410
(1,1,3): (1,1,2) -0.127130 (1,1,4) 0.170142 (1,2,3) 0.226917
(1,1,4): (1,1,3) -0.170142 (1,1,5) 0.155953 (1,2,4) 0.385299
(1,1,5): (1,1,4) -0.155953 (1,1,6) 6.367303E-02 (1,2,5) 0.545845
(1,1,6): (1,1,5) -6.367303E-02 (1,1,7) -5.969406E-02 (1,2,6) 0.610270
(1,1,7): (1,1,6) 5.969406E-02 (1,1,8) -0.148018 (1,2,7) 0.548049
(1,1,8): (1,1,7) 0.148018 (1,1,9) -0.152325 (1,2,8) 0.392129
(1,1,9): (1,1,8) 0.152325 (1,1,10) -9.061737E-02 (1,2,9) 0.244931
(1,1,10): (1,1,9) 9.061737E-02 (1,2,10) 0.163598
(1,2,1): (1,1,1) -7.065885E-02 (1,2,2) 0.113920 (1,3,1) 0.138760
(1,2,2): (1,1,2) -0.120410 (1,2,1) -0.113920 (1,2,3) 0.233643 (1,3,2) 0.247113
(1,2,3): (1,1,3) -0.226917 (1,2,2) -0.233643 (1,2,4) 0.328436 (1,3,3) 0.492361
(1,2,4): (1,1,4) -0.385299 (1,2,3) -0.328436 (1,2,5) 0.316142 (1,3,4) 0.889054
(1,2,5): (1,1,5) -0.545845 (1,2,4) -0.316142 (1,2,6) 0.127798 (1,3,5) 1.33112
(1,2,6): (1,1,6) -0.610270 (1,2,5) -0.127798 (1,2,7) -0.121622 (1,3,6) 1.49918
(1,2,7): (1,1,7) -0.548049 (1,2,6) 0.121622 (1,2,8) -0.303568 (1,3,7) 1.33529
(1,2,8): (1,1,8) -0.392129 (1,2,7) 0.303568 (1,2,9) -0.299390 (1,3,8) 0.902044
(1,2,9): (1,1,9) -0.244931 (1,2,8) 0.299390 (1,2,10) -0.171893 (1,3,9) 0.527245
(1,2,10): (1,1,10) -0.163598 (1,2,9) 0.171893 (1,3,10) 0.333454
(1,3,1): (1,2,1) -0.138760 (1,3,2) 0.222247 (1,4,1) 0.172111
(1,3,2): (1,2,2) -0.247113 (1,3,1) -0.222247 (1,3,3) 0.478859 (1,4,2) 0.332687
(1,3,3): (1,2,3) -0.492361 (1,3,2) -0.478859 (1,3,4) 0.724505 (1,4,3) 0.738965
(1,3,4): (1,2,4) -0.889054 (1,3,3) -0.724505 (1,3,5) 0.755817 (1,4,4) 1.51775
(1,3,5): (1,2,5) -1.33112 (1,3,4) -0.755817 (1,3,6) 0.293981 (1,4,5) 2.58328
(1,3,6): (1,2,6) -1.49918 (1,3,5) -0.293981 (1,3,7) -0.283662 (1,4,6) 2.91980
(1,3,7): (1,2,7) -1.33529 (1,3,6) 0.283662 (1,3,8) -0.734370 (1,4,7) 2.58818
(1,3,8): (1,2,8) -0.902044 (1,3,7) 0.734370 (1,3,9) -0.673369 (1,4,8) 1.53294
(1,3,9): (1,2,9) -0.527245 (1,3,8) 0.673369 (1,3,10) -0.365378 (1,4,9) 0.780942
(1,3,10): (1,2,10) -0.333454 (1,3,9) 0.365378 (1,4,10) 0.442647
(1,4,1): (1,3,1) -0.172111 (1,4,2) 0.382902 (1,5,1) 0.100215
(1,4,2): (1,3,2) -0.332687 (1,4,1) -0.382902 (1,4,3) 0.885708 (1,5,2) 0.237105
(1,4,3): (1,3,3) -0.738965 (1,4,2) -0.885708 (1,4,4) 1.50318 (1,5,3) 0.689845
(1,4,4): (1,3,4) -1.51775 (1,4,3) -1.50318 (1,4,5) 1.81408 (1,5,4) 1.94503
(1,4,5): (1,3,5) -2.58328 (1,4,4) -1.81408 (1,4,6) 0.623867 (1,5,5) 4.63378
(1,4,6): (1,3,6) -2.91980 (1,4,5) -0.623867 (1,4,7) -0.608700 (1,5,6) 5.06432
(1,4,7): (1,3,7) -2.58818 (1,4,6) 0.608700 (1,4,8) -1.78206 (1,5,7) 4.63650
(1,4,8): (1,3,8) -1.53294 (1,4,7) 1.78206 (1,4,9) -1.42462 (1,5,8) 1.95278
(1,4,9): (1,3,9) -0.780942 (1,4,8) 1.42462 (1,4,10) -0.703423 (1,5,9) 0.712217
(1,4,10): (1,3,10) -0.442647 (1,4,9) 0.703423 (1,5,10) 0.303911
(1,5,1): (1,4,1) -0.100215 (1,5,2) 0.520169 (1,6,1) -0.126333
(1,5,2): (1,4,2) -0.237105 (1,5,1) -0.520169 (1,5,3) 1.34124 (1,6,2) -0.216998
(1,5,3): (1,4,3) -0.689845 (1,5,2) -1.34124 (1,5,4) 2.76759 (1,6,3) -0.253903
(1,5,4): (1,4,4) -1.94503 (1,5,3) -2.76759 (1,5,5) 4.49990 (1,6,4) 0.805058
(1,5,5): (1,4,5) -4.63378 (1,5,4) -4.49990 (1,5,6) 1.04145 (1,6,5) 8.74962
(1,5,6): (1,4,6) -5.06432 (1,5,5) -1.04145 (1,5,7) -1.02357 (1,6,6) 7.82697
(1,5,7): (1,4,7) -4.63650 (1,5,6) 1.02357 (1,5,8) -4.46197 (1,6,7) 8.74677
(1,5,8): (1,4,8) -1.95278 (1,5,7) 4.46197 (1,5,9) -2.67316 (1,6,8) 0.794324
(1,5,9): (1,4,9) -0.712217 (1,5,8) 2.67316 (1,5,10) -1.11327 (1,6,9) -0.285597
(1,5,10): (1,4,10) -0.303911 (1,5,9) 1.11327 (1,6,10) -0.300174
(1,6,1): (1,5,1) 0.126333 (1,6,2) 0.429237 (1,7,1) -0.375671
(1,6,2): (1,5,2) 0.216998 (1,6,1) -0.429237 (1,6,3) 1.30398 (1,7,2) -0.898989
(1,6,3): (1,5,3) 0.253903 (1,6,2) -1.30398 (1,6,4) 3.85501 (1,7,3) -2.60120
(1,6,4): (1,5,4) -0.805058 (1,6,3) -3.85501 (1,6,5) 12.6709 (1,7,4) -7.80255
(1,6,5): (1,5,5) -8.74962 (1,6,4) -12.6709 (1,6,6) 0.171177 (1,7,5) -25.1989
(1,6,6): (1,5,6) -7.82697 (1,6,5) -0.171177 (1,6,7) -0.156037 (1,7,6) -38.2515
(1,6,7): (1,5,7) -8.74677 (1,6,6) 0.156037 (1,6,8) -12.6394 (1,7,7) -25.2077
(1,6,8): (1,5,8) -0.794324 (1,6,7) 12.6394 (1,6,9) -3.78134 (1,7,8) -7.82908
(1,6,9): (1,5,9) 0.285597 (1,6,8) 3.78134 (1,6,10) -1.12799 (1,7,9) -2.68504
(1,6,10): (1,5,10) 0.300174 (1,6,9) 1.12799 (1,7,10) -1.15937
(1,7,1): (1,6,1) 0.375671 (1,7,2) -9.175716E-02 (1,8,1) -0.269212
(1,7,2): (1,6,2) 0.898989 (1,7,1) 9.175716E-02 (1,7,3) -0.378648 (1,8,2) -0.664049
(1,7,3): (1,6,3) 2.60120 (1,7,2) 0.378648 (1,7,4) -1.18026 (1,8,3) -1.97319
(1,7,4): (1,6,4) 7.80255 (1,7,3) 1.18026 (1,7,5) -3.31124 (1,8,4) -5.95520
(1,7,5): (1,6,5) 25.1989 (1,7,4) 3.31124 (1,7,6) -10.4580 (1,8,5) -18.3140
(1,7,6): (1,6,6) 38.2515 (1,7,5) 10.4580 (1,7,7) 10.4663 (1,8,6) -59.2859
(1,7,7): (1,6,7) 25.2077 (1,7,6) -10.4663 (1,7,8) 3.32283 (1,8,7) -18.3199
(1,7,8): (1,6,8) 7.82908 (1,7,7) -3.32283 (1,7,9) 1.19464 (1,8,8) -5.97344
(1,7,9): (1,6,9) 2.68504 (1,7,8) -1.19464 (1,7,10) 0.376577 (1,8,9) -2.03205
(1,7,10): (1,6,10) 1.15937 (1,7,9) -0.376577 (1,8,10) -0.851747
(1,8,1): (1,7,1) 0.269212 (1,8,2) -0.485894 (1,9,1) 0.103589
(1,8,2): (1,7,2) 0.664049 (1,8,1) 0.485894 (1,8,3) -1.68403 (1,9,2) 0.279313
(1,8,3): (1,7,3) 1.97319 (1,8,2) 1.68403 (1,8,4) -5.12988 (1,9,3) 0.951575
(1,8,4): (1,7,4) 5.95520 (1,8,3) 5.12988 (1,8,5) -15.3152 (1,9,4) 3.42054
(1,8,5): (1,7,5) 18.3140 (1,8,4) 15.3152 (1,8,6) -47.1948 (1,9,5) 12.6914
(1,8,6): (1,7,6) 59.2859 (1,8,5) 47.1948 (1,8,7) 47.1993 (1,9,6) 50.1176
(1,8,7): (1,7,7) 18.3199 (1,8,6) -47.1993 (1,8,8) 15.3139 (1,9,7) 12.6935
(1,8,8): (1,7,8) 5.97344 (1,8,7) -15.3139 (1,8,9) 5.10219 (1,9,8) 3.42687
(1,8,9): (1,7,9) 2.03205 (1,8,8) -5.10219 (1,8,10) 1.55124 (1,9,9) 0.973033
(1,8,10): (1,7,10) 0.851747 (1,8,9) -1.55124 (1,9,10) 0.351979
(1,9,1): (1,8,1) -0.103589 (1,9,2) -0.309805 (1,10,1) 0.278109
(1,9,2): (1,8,2) -0.279313 (1,9,1) 0.309805 (1,9,3) -1.00677 (1,10,2) 0.658629
(1,9,3): (1,8,3) -0.951575 (1,9,2) 1.00677 (1,9,4) -2.61701 (1,10,3) 1.86875
(1,9,4): (1,8,4) -3.42054 (1,9,3) 2.61701 (1,9,5) -5.78446 (1,10,4) 5.38041
(1,9,5): (1,8,5) -12.6914 (1,9,4) 5.78446 (1,9,6) -10.8160 (1,10,5) 16.0506
(1,9,6): (1,8,6) -50.1176 (1,9,5) 10.8160 (1,9,7) 10.8209 (1,10,6) 26.7518
(1,9,7): (1,8,7) -12.6935 (1,9,6) -10.8209 (1,9,8) 5.78789 (1,10,7) 16.0562
(1,9,8): (1,8,8) -3.42687 (1,9,7) -5.78789 (1,9,9) 2.60556 (1,10,8) 5.39927
(1,9,9): (1,8,9) -0.973033 (1,9,8) -2.60556 (1,9,10) 0.926532 (1,10,9) 1.93012
(1,9,10): (1,8,10) -0.351979 (1,9,9) -0.926532 (1,10,10) 0.850082
(1,10,1): (1,9,1) -0.278109 (1,10,2) 6.944745E-02 (1,11,1) 0.151363
(1,10,2): (1,9,2) -0.658629 (1,10,1) -6.944745E-02 (1,10,3) 0.193506 (1,11,2) 0.310427
(1,10,3): (1,9,3) -1.86875 (1,10,2) -0.193506 (1,10,4) 0.809207 (1,11,3) 0.650272
(1,10,4): (1,9,4) -5.38041 (1,10,3) -0.809207 (1,10,5) 4.12105 (1,11,4) 0.853064
(1,10,5): (1,9,5) -16.0506 (1,10,4) -4.12105 (1,10,6) -1.56604 (1,11,5) -1.61954
(1,10,6): (1,9,6) -26.7518 (1,10,5) 1.56604 (1,10,7) 1.57550 (1,11,6) 3.189915E-02
(1,10,7): (1,9,7) -16.0562 (1,10,6) -1.57550 (1,10,8) -4.10422 (1,11,7) -1.61652
(1,10,8): (1,9,8) -5.39927 (1,10,7) 4.10422 (1,10,9) -0.777813 (1,11,8) 0.864171
(1,10,9): (1,9,9) -1.93012 (1,10,8) 0.777813 (1,10,10) -0.143096 (1,11,9) 0.685586
(1,10,10): (1,9,10) -0.850082 (1,10,9) 0.143096 (1,11,10) 0.412981
(1,11,1): (1,10,1) -0.151363 (1,11,2) 0.228383 (1,12,1) -1.951243E-02
(1,11,2): (1,10,2) -0.310427 (1,11,1) -0.228383 (1,11,3) 0.532962 (1,12,2) -3.445755E-02
(1,11,3): (1,10,3) -0.650272 (1,11,2) -0.532962 (1,11,4) 1.01230 (1,12,3) -0.109946
(1,11,4): (1,10,4) -0.853064 (1,11,3) -1.01230 (1,11,5) 1.59895 (1,12,4) -0.414807
(1,11,5): (1,10,5) 1.61954 (1,11,4) -1.59895 (1,11,6) 8.465428E-02 (1,12,5) -1.23356
(1,11,6): (1,10,6) -3.189915E-02 (1,11,5) -8.465428E-02 (1,11,7) -7.235430E-02 (1,12,6) -1.09849
(1,11,7): (1,10,7) 1.61652 (1,11,6) 7.235430E-02 (1,11,8) -1.57434 (1,12,7) -1.23459
(1,11,8): (1,10,8) -0.864171 (1,11,7) 1.57434 (1,11,9) -0.956550 (1,12,8) -0.417246
(1,11,9): (1,10,9) -0.685586 (1,11,8) 0.956550 (1,11,10) -0.414986 (1,12,9) -0.114856
(1,11,10): (1,10,10) -0.412981 (1,11,9) 0.414986 (1,12,10) -4.396624E-02
(1,12,1): (1,11,1) 1.951243E-02 (1,12,2) 0.213410 (1,13,1) -9.928886E-02
(1,12,2): (1,11,2) 3.445755E-02 (1,12,1) -0.213410 (1,12,3) 0.457163 (1,13,2) -0.170794
(1,12,3): (1,11,3) 0.109946 (1,12,2) -0.457163 (1,12,4) 0.705697 (1,13,3) -0.338723
(1,12,4): (1,11,4) 0.414807 (1,12,3) -0.705697 (1,12,5) 0.777424 (1,13,4) -0.638533
(1,12,5): (1,11,5) 1.23356 (1,12,4) -0.777424 (1,12,6) 0.218445 (1,13,5) -1.02526
(1,12,6): (1,11,6) 1.09849 (1,12,5) -0.218445 (1,12,7) -0.207145 (1,13,6) -1.10148
(1,12,7): (1,11,7) 1.23459 (1,12,6) 0.207145 (1,12,8) -0.754428 (1,13,7) -1.02845
(1,12,8): (1,11,8) 0.417246 (1,12,7) 0.754428 (1,12,9) -0.652603 (1,13,8) -0.648199
(1,12,9): (1,11,9) 0.114856 (1,12,8) 0.652603 (1,12,10) -0.343888 (1,13,9) -0.363778
(1,12,10): (1,11,10) 4.396624E-02 (1,12,9) 0.343888 (1,13,10) -0.230490
(1,13,1): (1,12,1) 9.928886E-02 (1,13,2) 0.141875 (1,14,1) -9.443526E-02
(1,13,2): (1,12,2) 0.170794 (1,13,1) -0.141875 (1,13,3) 0.289040 (1,14,2) -0.156161
(1,13,3): (1,12,3) 0.338723 (1,13,2) -0.289040 (1,13,4) 0.405694 (1,14,3) -0.287127
(1,13,4): (1,12,4) 0.638533 (1,13,3) -0.405694 (1,13,5) 0.391598 (1,14,4) -0.482351
(1,13,5): (1,12,5) 1.02526 (1,13,4) -0.391598 (1,13,6) 0.142848 (1,14,5) -0.682555
(1,13,6): (1,12,6) 1.10148 (1,13,5) -0.142848 (1,13,7) -0.134720 (1,14,6) -0.750397
(1,13,7): (1,12,7) 1.02845 (1,13,6) 0.134720 (1,13,8) -0.375156 (1,14,7) -0.685622
(1,13,8): (1,12,8) 0.648199 (1,13,7) 0.375156 (1,13,9) -0.368170 (1,14,8) -0.491729
(1,13,9): (1,12,9) 0.363778 (1,13,8) 0.368170 (1,13,10) -0.210625 (1,14,9) -0.311338
(1,13,10): (1,12,10) 0.230490 (1,13,9) 0.210625 (1,14,10) -0.212655
(1,14,1): (1,13,1) 9.443526E-02 (1,14,2) 8.015757E-02 (1,15,1) -5.157662E-02
(1,14,2): (1,13,2) 0.156161 (1,14,1) -8.015757E-02 (1,14,3) 0.158072 (1,15,2) -8.325676E-02
(1,14,3): (1,13,3) 0.287127 (1,14,2) -0.158072 (1,14,4) 0.210614 (1,15,3) -0.147789
(1,14,4): (1,13,4) 0.482351 (1,14,3) -0.210614 (1,14,5) 0.191954 (1,15,4) -0.237659
(1,14,5): (1,13,5) 0.682555 (1,14,4) -0.191954 (1,14,6) 7.539987E-02 (1,15,5) -0.322869
(1,14,6): (1,13,6) 0.750397 (1,14,5) -7.539987E-02 (1,14,7) -7.032636E-02 (1,15,6) -0.355397
(1,14,7): (1,13,7) 0.685622 (1,14,6) 7.032636E-02 (1,14,8) -0.181842 (1,15,7) -0.324579
(1,14,8): (1,13,8) 0.491729 (1,14,7) 0.181842 (1,14,9) -0.187996 (1,15,8) -0.242874
(1,14,9): (1,13,9) 0.311338 (1,14,8) 0.187996 (1,14,10) -0.112040 (1,15,9) -0.161127
(1,14,10): (1,13,10) 0.212655 (1,14,9) 0.112040 (1,15,10) -0.113852
(1,15,1): (1,14,1) 5.157662E-02 (1,15,2) 4.847840E-02
(1,15,2): (1,14,2) 8.325676E-02 (1,15,1) -4.847840E-02 (1,15,3) 9.353299E-02
(1,15,3): (1,14,3) 0.147789 (1,15,2) -9.353299E-02 (1,15,4) 0.120768
(1,15,4): (1,14,4) 0.237659 (1,15,3) -0.120768 (1,15,5) 0.106854
(1,15,5): (1,14,5) 0.322869 (1,15,4) -0.106854 (1,15,6) 4.296070E-02
(1,15,6): (1,14,6) 0.355397 (1,15,5) -4.296070E-02 (1,15,7) -3.959413E-02
(1,15,7): (1,14,7) 0.324579 (1,15,6) 3.959413E-02 (1,15,8) -0.100251
(1,15,8): (1,14,8) 0.242874 (1,15,7) 0.100251 (1,15,9) -0.106293
(1,15,9): (1,14,9) 0.161127 (1,15,8) 0.106293 (1,15,10) -6.478858E-02
(1,15,10): (1,14,10) 0.113852 (1,15,9) 6.478858E-02

 WEL PACKAGE (WEL-1) FLOW RATES   PERIOD      2   STEP       65
 ----------------------------------------------------------------------------------------
   NUMBER   CELLID                    RATE       NAME                                    
 ----------------------------------------------------------------------------------------
     1      (1,8,6)              -204.04718      WEL                                     
 ----------------------------------------------------------------------------------------




 API PACKAGE (MAR) FLOW RATES   PERIOD      2   STEP       65
 -----------------------------------------------
   NUMBER   CELLID                    RATE      
 -----------------------------------------------
     1      (1,6,5)               46.666667     
     2      (1,6,6)               46.666667     
     3      (1,6,7)               46.666667     
     4      (1,10,5)              21.349058     
     5      (1,10,6)              21.349058     
     6      (1,10,7)              21.349058     
 -----------------------------------------------



1
  HEAD IN LAYER   1 AT END OF TIME STEP  65 IN STRESS PERIOD    2
  ---------------------------------------------------------------------------

            1           2           3           4           5           6           7           8           9          10
 ........................................................................................................................
   1   1.1360E-02  1.7765E-02  3.0440E-02  4.7374E-02  6.2872E-02  6.9195E-02  6.3267E-02  4.8558E-02  3.3399E-02  2.4368E-02
   2   1.8412E-02  2.9771E-02  5.3012E-02  8.5577E-02  0.1168      0.1294      0.1174      8.7431E-02  5.7752E-02  4.0661E-02
   3   3.2244E-02  5.4348E-02  0.1018      0.1730      0.2467      0.2753      0.2477      0.1761      0.1099      7.3762E-02
   4   4.9370E-02  8.7329E-02  0.1744      0.3200      0.4929      0.5520      0.4944      0.3246      0.1866      0.1175    
   5   5.9333E-02  0.1108      0.2417      0.5052      0.9174       1.012      0.9190      0.5103      0.2560      0.1475    
   6   4.6774E-02  8.9318E-02  0.2169      0.5813       1.667       1.682       1.669      0.5854      0.2282      0.1179    
   7   9.3818E-03  2.1469E-04 -3.7649E-02 -0.1561     -0.4925      -1.592     -0.4917     -0.1542     -3.4350E-02  3.2953E-03
   8  -1.7514E-02 -6.6189E-02 -0.2357     -0.7611      -2.419      -8.644      -2.418     -0.7609     -0.2383     -8.1851E-02
   9  -7.1479E-03 -3.8151E-02 -0.1392     -0.4046      -1.007      -2.210      -1.007     -0.4038     -0.1396     -4.6489E-02
  10   2.0606E-02  2.7531E-02  4.6792E-02  0.1267      0.5185      0.3696      0.5194      0.1292      5.2431E-02  3.8196E-02
  11   3.5688E-02  5.8394E-02  0.1111      0.2102      0.3645      0.3727      0.3657      0.2138      0.1202      7.9169E-02
  12   3.3744E-02  5.4968E-02  0.1002      0.1696      0.2455      0.2668      0.2466      0.1730      0.1088      7.4807E-02
  13   2.3848E-02  3.7982E-02  6.6695E-02  0.1068      0.1454      0.1595      0.1462      0.1093      7.2840E-02  5.1929E-02
  14   1.4427E-02  2.2425E-02  3.8172E-02  5.9110E-02  7.8157E-02  8.5633E-02  7.8660E-02  6.0617E-02  4.1931E-02  3.0774E-02
  15   9.2772E-03  1.4118E-02  2.3450E-02  3.5484E-02  4.6120E-02  5.0395E-02  4.6455E-02  3.6476E-02  2.5886E-02  1.9423E-02

 HEAD WILL BE SAVED ON UNIT 1043 AT END OF TIME STEP   65, STRESS PERIOD    2


  VOLUME BUDGET FOR ENTIRE MODEL AT END OF TIME STEP   65, STRESS PERIOD   2
  ---------------------------------------------------------------------------------------------------

     CUMULATIVE VOLUME      L**3       RATES FOR THIS TIME STEP      L**3/T          PACKAGE NAME    
     ------------------                 ------------------------                     ----------------

           IN:                                      IN:
           ---                                      ---
              STO-SS =          23.6934                STO-SS =       1.6512E-02     STORAGE                          
              STO-SY =       56618.1750                STO-SY =          34.1686     STORAGE                          
                 WEL =           0.0000                   WEL =           0.0000     WEL-1                            
                 API =      149536.9279                   API =         204.0472     MAR                              
                 CHD =       2.8247E-08                   CHD =           0.0000     CHD_0                            

            TOTAL IN =      206178.7963              TOTAL IN =         238.2323

          OUT:                                     OUT:
          ----                                     ----
              STO-SS =          29.3799                STO-SS =       1.7514E-02     STORAGE                          
              STO-SY =       56612.4886                STO-SY =          34.1676     STORAGE                          
                 WEL =      149536.9279                   WEL =         204.0472     WEL-1                            
                 API =           0.0000                   API =           0.0000     MAR                              
                 CHD =       3.0388E-08                   CHD =           0.0000     CHD_0                            

           TOTAL OUT =      206178.7963             TOTAL OUT =         238.2323

            IN - OUT =       1.6406E-06              IN - OUT =       8.9541E-09

 PERCENT DISCREPANCY =           0.00     PERCENT DISCREPANCY =           0.00




         TIME SUMMARY AT END OF TIME STEP   65 IN STRESS PERIOD    2
                    SECONDS     MINUTES      HOURS       DAYS        YEARS
                    -----------------------------------------------------------
   TIME STEP LENGTH 8.64000E+05  14400.      240.00      10.000     2.73785E-02
 STRESS PERIOD TIME 5.61600E+07 9.36000E+05  15600.      650.00      1.7796    
         TOTAL TIME 5.62464E+07 9.37440E+05  15624.      651.00      1.7823    


end timestep


start timestep kper="2" kstp="66" mode="normal"

 UBDSV1 SAVING           STO-SS ON UNIT   1042 AT TIME STEP     66, STRESS PERIOD      2
 UBDSV1 SAVING           STO-SY ON UNIT   1042 AT TIME STEP     66, STRESS PERIOD      2
 UBDSV1 SAVING     FLOW-JA-FACE ON UNIT   1042 AT TIME STEP     66, STRESS PERIOD      2
 UBDSV06 SAVING       DATA-SPDIS IN MODEL GWF              PACKAGE NPF             CONNECTED TO MODEL GWF              PACKAGE NPF              ON UNIT   1042 AT TIME STEP     66, STRESS PERIOD      2
 UBDSV06 SAVING              WEL IN MODEL GWF              PACKAGE GWF             CONNECTED TO MODEL GWF              PACKAGE WEL-1            ON UNIT   1042 AT TIME STEP     66, STRESS PERIOD      2
 UBDSV06 SAVING              API IN MODEL GWF              PACKAGE GWF             CONNECTED TO MODEL GWF              PACKAGE MAR              ON UNIT   1042 AT TIME STEP     66, STRESS PERIOD      2
 UBDSV06 SAVING              CHD IN MODEL GWF              PACKAGE GWF             CONNECTED TO MODEL GWF              PACKAGE CHD_0            ON UNIT   1042 AT TIME STEP     66, STRESS PERIOD      2

    CALCULATED INTERCELL FLOW FOR PERIOD 2 STEP 66
(1,1,1): (1,1,2) 6.662048E-02 (1,2,1) 7.301389E-02
(1,1,2): (1,1,1) -6.662048E-02 (1,1,3) 0.131495 (1,2,2) 0.123538
(1,1,3): (1,1,2) -0.131495 (1,1,4) 0.175247 (1,2,3) 0.231384
(1,1,4): (1,1,3) -0.175247 (1,1,5) 0.160119 (1,2,4) 0.391270
(1,1,5): (1,1,4) -0.160119 (1,1,6) 6.536197E-02 (1,2,5) 0.553000
(1,1,6): (1,1,5) -6.536197E-02 (1,1,7) -6.105472E-02 (1,2,6) 0.617907
(1,1,7): (1,1,6) 6.105472E-02 (1,1,8) -0.151629 (1,2,7) 0.555320
(1,1,8): (1,1,7) 0.151629 (1,1,9) -0.156395 (1,2,8) 0.398408
(1,1,9): (1,1,8) 0.156395 (1,1,10) -9.324013E-02 (1,2,9) 0.250053
(1,1,10): (1,1,9) 9.324013E-02 (1,2,10) 0.167951
(1,2,1): (1,1,1) -7.301389E-02 (1,2,2) 0.117142 (1,3,1) 0.142409
(1,2,2): (1,1,2) -0.123538 (1,2,1) -0.117142 (1,2,3) 0.239349 (1,3,2) 0.251845
(1,2,3): (1,1,3) -0.231384 (1,2,2) -0.239349 (1,2,4) 0.335045 (1,3,3) 0.498908
(1,2,4): (1,1,4) -0.391270 (1,2,3) -0.335045 (1,2,5) 0.321485 (1,3,4) 0.897539
(1,2,5): (1,1,5) -0.553000 (1,2,4) -0.321485 (1,2,6) 0.129964 (1,3,5) 1.34105
(1,2,6): (1,1,6) -0.617907 (1,2,5) -0.129964 (1,2,7) -0.123343 (1,3,6) 1.50972
(1,2,7): (1,1,7) -0.555320 (1,2,6) 0.123343 (1,2,8) -0.308166 (1,3,7) 1.34542
(1,2,8): (1,1,8) -0.398408 (1,2,7) 0.308166 (1,2,9) -0.304613 (1,3,8) 0.911020
(1,2,9): (1,1,9) -0.250053 (1,2,8) 0.304613 (1,2,10) -0.175282 (1,3,9) 0.534812
(1,2,10): (1,1,10) -0.167951 (1,2,9) 0.175282 (1,3,10) 0.340048
(1,3,1): (1,2,1) -0.142409 (1,3,2) 0.226551 (1,4,1) 0.174808
(1,3,2): (1,2,2) -0.251845 (1,3,1) -0.226551 (1,3,3) 0.486381 (1,4,2) 0.335854
(1,3,3): (1,2,3) -0.498908 (1,3,2) -0.486381 (1,3,4) 0.733049 (1,4,3) 0.742755
(1,3,4): (1,2,4) -0.897539 (1,3,3) -0.733049 (1,3,5) 0.762595 (1,4,4) 1.52193
(1,3,5): (1,2,5) -1.34105 (1,3,4) -0.762595 (1,3,6) 0.296737 (1,4,5) 2.58755
(1,3,6): (1,2,6) -1.50972 (1,3,5) -0.296737 (1,3,7) -0.285785 (1,4,6) 2.92422
(1,3,7): (1,2,7) -1.34542 (1,3,6) 0.285785 (1,3,8) -0.740098 (1,4,7) 2.59262
(1,3,8): (1,2,8) -0.911020 (1,3,7) 0.740098 (1,3,9) -0.679990 (1,4,8) 1.53753
(1,3,9): (1,2,9) -0.534812 (1,3,8) 0.679990 (1,3,10) -0.369734 (1,4,9) 0.785496
(1,3,10): (1,2,10) -0.340048 (1,3,9) 0.369734 (1,4,10) 0.447072
(1,4,1): (1,3,1) -0.174808 (1,4,2) 0.387679 (1,5,1) 9.924167E-02
(1,4,2): (1,3,2) -0.335854 (1,4,1) -0.387679 (1,4,3) 0.893872 (1,5,2) 0.234989
(1,4,3): (1,3,3) -0.742755 (1,4,2) -0.893872 (1,4,4) 1.51216 (1,5,3) 0.685504
(1,4,4): (1,3,4) -1.52193 (1,4,3) -1.51216 (1,4,5) 1.82098 (1,5,4) 1.93787
(1,4,5): (1,3,5) -2.58755 (1,4,4) -1.82098 (1,4,6) 0.626768 (1,5,5) 4.62413
(1,4,6): (1,3,6) -2.92422 (1,4,5) -0.626768 (1,4,7) -0.610803 (1,5,6) 5.05417
(1,4,7): (1,3,7) -2.59262 (1,4,6) 0.610803 (1,4,8) -1.78767 (1,5,7) 4.62687
(1,4,8): (1,3,8) -1.53753 (1,4,7) 1.78767 (1,4,9) -1.43128 (1,5,8) 1.94558
(1,4,9): (1,3,9) -0.785496 (1,4,8) 1.43128 (1,4,10) -0.707907 (1,5,9) 0.707630
(1,4,10): (1,3,10) -0.447072 (1,4,9) 0.707907 (1,5,10) 0.300989
(1,5,1): (1,4,1) -9.924167E-02 (1,5,2) 0.523808 (1,6,1) -0.132107
(1,5,2): (1,4,2) -0.234989 (1,5,1) -0.523808 (1,5,3) 1.34721 (1,6,2) -0.225797
(1,5,3): (1,4,3) -0.685504 (1,5,2) -1.34721 (1,5,4) 2.77387 (1,6,3) -0.268010
(1,5,4): (1,4,4) -1.93787 (1,5,3) -2.77387 (1,5,5) 4.50463 (1,6,4) 0.785303
(1,5,5): (1,4,5) -4.62413 (1,5,4) -4.50463 (1,5,6) 1.04392 (1,6,5) 8.72552
(1,5,6): (1,4,6) -5.05417 (1,5,5) -1.04392 (1,5,7) -1.02523 (1,6,6) 7.80305
(1,5,7): (1,4,7) -4.62687 (1,5,6) 1.02523 (1,5,8) -4.46543 (1,6,7) 8.72247
(1,5,8): (1,4,8) -1.94558 (1,5,7) 4.46543 (1,5,9) -2.67731 (1,6,8) 0.773942
(1,5,9): (1,4,9) -0.707630 (1,5,8) 2.67731 (1,5,10) -1.11611 (1,6,9) -0.301260
(1,5,10): (1,4,10) -0.300989 (1,5,9) 1.11611 (1,6,10) -0.312391
(1,6,1): (1,5,1) 0.132107 (1,6,2) 0.429847 (1,7,1) -0.383973
(1,6,2): (1,5,2) 0.225797 (1,6,1) -0.429847 (1,6,3) 1.30459 (1,7,2) -0.911257
(1,6,3): (1,5,3) 0.268010 (1,6,2) -1.30459 (1,6,4) 3.85562 (1,7,3) -2.62031
(1,6,4): (1,5,4) -0.785303 (1,6,3) -3.85562 (1,6,5) 12.6727 (1,7,4) -7.82861
(1,6,5): (1,5,5) -8.72552 (1,6,4) -12.6727 (1,6,6) 0.173632 (1,7,5) -25.2283
(1,6,6): (1,5,6) -7.80305 (1,6,5) -0.173632 (1,6,7) -0.157876 (1,7,6) -38.2767
(1,6,7): (1,5,7) -8.72247 (1,6,6) 0.157876 (1,6,8) -12.6403 (1,7,7) -25.2375
(1,6,8): (1,5,8) -0.773942 (1,6,7) 12.6403 (1,6,9) -3.78076 (1,7,8) -7.85607
(1,6,9): (1,5,9) 0.301260 (1,6,8) 3.78076 (1,6,10) -1.12736 (1,7,9) -2.70637
(1,6,10): (1,5,10) 0.312391 (1,6,9) 1.12736 (1,7,10) -1.17639
(1,7,1): (1,6,1) 0.383973 (1,7,2) -9.504191E-02 (1,8,1) -0.275623
(1,7,2): (1,6,2) 0.911257 (1,7,1) 9.504191E-02 (1,7,3) -0.384547 (1,8,2) -0.674098
(1,7,3): (1,6,3) 2.62031 (1,7,2) 0.384547 (1,7,4) -1.18538 (1,8,3) -1.99005
(1,7,4): (1,6,4) 7.82861 (1,7,3) 1.18538 (1,7,5) -3.30961 (1,8,4) -5.97969
(1,7,5): (1,6,5) 25.2283 (1,7,4) 3.30961 (1,7,6) -10.4495 (1,8,5) -18.3400
(1,7,6): (1,6,6) 38.2767 (1,7,5) 10.4495 (1,7,7) 10.4582 (1,8,6) -59.2880
(1,7,7): (1,6,7) 25.2375 (1,7,6) -10.4582 (1,7,8) 3.32145 (1,8,7) -18.3461
(1,7,8): (1,6,8) 7.85607 (1,7,7) -3.32145 (1,7,9) 1.19961 (1,8,8) -5.99861
(1,7,9): (1,6,9) 2.70637 (1,7,8) -1.19961 (1,7,10) 0.381178 (1,8,9) -2.05059
(1,7,10): (1,6,10) 1.17639 (1,7,9) -0.381178 (1,8,10) -0.865557
(1,8,1): (1,7,1) 0.275623 (1,8,2) -0.492797 (1,9,1) 0.102362
(1,8,2): (1,7,2) 0.674098 (1,8,1) 0.492797 (1,8,3) -1.69667 (1,9,2) 0.276015
(1,8,3): (1,7,3) 1.99005 (1,8,2) 1.69667 (1,8,4) -5.14207 (1,9,3) 0.942700
(1,8,4): (1,7,4) 5.97969 (1,8,3) 5.14207 (1,8,5) -15.3114 (1,9,4) 3.39951
(1,8,5): (1,7,5) 18.3400 (1,8,4) 15.3114 (1,8,6) -47.1454 (1,9,5) 12.6447
(1,8,6): (1,7,6) 59.2880 (1,8,5) 47.1454 (1,8,7) 47.1500 (1,9,6) 50.0072
(1,8,7): (1,7,7) 18.3461 (1,8,6) -47.1500 (1,8,8) 15.3099 (1,9,7) 12.6468
(1,8,8): (1,7,8) 5.99861 (1,8,7) -15.3099 (1,8,9) 5.11317 (1,9,8) 3.40580
(1,8,9): (1,7,9) 2.05059 (1,8,8) -5.11317 (1,8,10) 1.56044 (1,9,9) 0.963902
(1,8,10): (1,7,10) 0.865557 (1,8,9) -1.56044 (1,9,10) 0.347695
(1,9,1): (1,8,1) -0.102362 (1,9,2) -0.318765 (1,10,1) 0.281884
(1,9,2): (1,8,2) -0.276015 (1,9,1) 0.318765 (1,9,3) -1.02488 (1,10,2) 0.663024
(1,9,3): (1,8,3) -0.942700 (1,9,2) 1.02488 (1,9,4) -2.64067 (1,10,3) 1.87239
(1,9,4): (1,8,4) -3.39951 (1,9,3) 2.64067 (1,9,5) -5.80237 (1,10,4) 5.37650
(1,9,5): (1,8,5) -12.6447 (1,9,4) 5.80237 (1,9,6) -10.8086 (1,10,5) 16.0180
(1,9,6): (1,8,6) -50.0072 (1,9,5) 10.8086 (1,9,7) 10.8136 (1,10,6) 26.6981
(1,9,7): (1,8,7) -12.6468 (1,9,6) -10.8136 (1,9,8) 5.80556 (1,10,7) 16.0238
(1,9,8): (1,8,8) -3.40580 (1,9,7) -5.80556 (1,9,9) 2.62783 (1,10,8) 5.39583
(1,9,9): (1,8,9) -0.963902 (1,9,8) -2.62783 (1,9,10) 0.940488 (1,10,9) 1.93480
(1,9,10): (1,8,10) -0.347695 (1,9,9) -0.940488 (1,10,10) 0.856395
(1,10,1): (1,9,1) -0.281884 (1,10,2) 6.111094E-02 (1,11,1) 0.157102
(1,10,2): (1,9,2) -0.663024 (1,10,1) -6.111094E-02 (1,10,3) 0.174741 (1,11,2) 0.319506
(1,10,3): (1,9,3) -1.87239 (1,10,2) -0.174741 (1,10,4) 0.778558 (1,11,3) 0.665985
(1,10,4): (1,9,4) -5.37650 (1,10,3) -0.778558 (1,10,5) 4.07690 (1,11,4) 0.879072
(1,10,5): (1,9,5) -16.0180 (1,10,4) -4.07690 (1,10,6) -1.57580 (1,11,5) -1.57352
(1,10,6): (1,9,6) -26.6981 (1,10,5) 1.57580 (1,10,7) 1.58550 (1,11,6) 7.884266E-02
(1,10,7): (1,9,7) -16.0238 (1,10,6) -1.58550 (1,10,8) -4.06001 (1,11,7) -1.57032
(1,10,8): (1,9,8) -5.39583 (1,10,7) 4.06001 (1,10,9) -0.747943 (1,11,8) 0.890750
(1,10,9): (1,9,9) -1.93480 (1,10,8) 0.747943 (1,10,10) -0.127570 (1,11,9) 0.702786
(1,10,10): (1,9,10) -0.856395 (1,10,9) 0.127570 (1,11,10) 0.425468
(1,11,1): (1,10,1) -0.157102 (1,11,2) 0.223362 (1,12,1) -1.558194E-02
(1,11,2): (1,10,2) -0.319506 (1,11,1) -0.223362 (1,11,3) 0.520730 (1,12,2) -2.697639E-02
(1,11,3): (1,10,3) -0.665985 (1,11,2) -0.520730 (1,11,4) 0.991869 (1,12,3) -9.488073E-02
(1,11,4): (1,10,4) -0.879072 (1,11,3) -0.991869 (1,11,5) 1.57554 (1,12,4) -0.388209
(1,11,5): (1,10,5) 1.57352 (1,11,4) -1.57554 (1,11,6) 7.658710E-02 (1,12,5) -1.19368
(1,11,6): (1,10,6) -7.884266E-02 (1,11,5) -7.658710E-02 (1,11,7) -6.387082E-02 (1,12,6) -1.05453
(1,11,7): (1,10,7) 1.57032 (1,11,6) 6.387082E-02 (1,11,8) -1.55049 (1,12,7) -1.19463
(1,11,8): (1,10,8) -0.890750 (1,11,7) 1.55049 (1,11,9) -0.935986 (1,12,8) -0.390352
(1,11,9): (1,10,9) -0.702786 (1,11,8) 0.935986 (1,11,10) -0.404083 (1,12,9) -9.882933E-02
(1,11,10): (1,10,10) -0.425468 (1,11,9) 0.404083 (1,12,10) -3.382636E-02
(1,12,1): (1,11,1) 1.558194E-02 (1,12,2) 0.211945 (1,13,1) -9.847144E-02
(1,12,2): (1,11,2) 2.697639E-02 (1,12,1) -0.211945 (1,12,3) 0.452543 (1,13,2) -0.167872
(1,12,3): (1,11,3) 9.488073E-02 (1,12,2) -0.452543 (1,12,4) 0.696847 (1,13,3) -0.331040
(1,12,4): (1,11,4) 0.388209 (1,12,3) -0.696847 (1,12,5) 0.767220 (1,13,4) -0.623469
(1,12,5): (1,11,5) 1.19368 (1,12,4) -0.767220 (1,12,6) 0.214460 (1,13,5) -1.00245
(1,12,6): (1,11,6) 1.05453 (1,12,5) -0.214460 (1,12,7) -0.202671 (1,13,6) -1.07571
(1,12,7): (1,11,7) 1.19463 (1,12,6) 0.202671 (1,12,8) -0.743561 (1,13,7) -1.00570
(1,12,8): (1,11,8) 0.390352 (1,12,7) 0.743561 (1,12,9) -0.642942 (1,13,8) -0.633194
(1,12,9): (1,11,9) 9.882933E-02 (1,12,8) 0.642942 (1,12,10) -0.338887 (1,13,9) -0.355962
(1,12,10): (1,11,10) 3.382636E-02 (1,12,9) 0.338887 (1,13,10) -0.226637
(1,13,1): (1,12,1) 9.847144E-02 (1,13,2) 0.142514 (1,14,1) -9.550228E-02
(1,13,2): (1,12,2) 0.167872 (1,13,1) -0.142514 (1,13,3) 0.289182 (1,14,2) -0.156536
(1,13,3): (1,12,3) 0.331040 (1,13,2) -0.289182 (1,13,4) 0.404211 (1,14,3) -0.285690
(1,13,4): (1,12,4) 0.623469 (1,13,3) -0.404211 (1,13,5) 0.389075 (1,14,4) -0.477823
(1,13,5): (1,12,5) 1.00245 (1,13,4) -0.389075 (1,13,6) 0.141788 (1,14,5) -0.674706
(1,13,6): (1,12,6) 1.07571 (1,13,5) -0.141788 (1,13,7) -0.133223 (1,14,6) -0.741191
(1,13,7): (1,12,7) 1.00570 (1,13,6) 0.133223 (1,13,8) -0.371978 (1,14,7) -0.677875
(1,13,8): (1,12,8) 0.633194 (1,13,7) 0.371978 (1,13,9) -0.365684 (1,14,8) -0.487432
(1,13,9): (1,12,9) 0.355962 (1,13,8) 0.365684 (1,13,10) -0.209583 (1,14,9) -0.310248
(1,13,10): (1,12,10) 0.226637 (1,13,9) 0.209583 (1,14,10) -0.213294
(1,14,1): (1,13,1) 9.550228E-02 (1,14,2) 8.148892E-02 (1,15,1) -5.267005E-02
(1,14,2): (1,13,2) 0.156536 (1,14,1) -8.148892E-02 (1,14,3) 0.160024 (1,15,2) -8.429152E-02
(1,14,3): (1,13,3) 0.285690 (1,14,2) -0.160024 (1,14,4) 0.212215 (1,15,3) -0.148484
(1,14,4): (1,13,4) 0.477823 (1,14,3) -0.212215 (1,14,5) 0.192735 (1,15,4) -0.237573
(1,14,5): (1,13,5) 0.674706 (1,14,4) -0.192735 (1,14,6) 7.568344E-02 (1,15,5) -0.321844
(1,14,6): (1,13,6) 0.741191 (1,14,5) -7.568344E-02 (1,14,7) -7.027570E-02 (1,15,6) -0.353974
(1,14,7): (1,13,7) 0.677875 (1,14,6) 7.027570E-02 (1,14,8) -0.182095 (1,15,7) -0.323627
(1,14,8): (1,13,8) 0.487432 (1,14,7) 0.182095 (1,14,9) -0.188710 (1,15,8) -0.242966
(1,14,9): (1,13,9) 0.310248 (1,14,8) 0.188710 (1,14,10) -0.112725 (1,15,9) -0.162146
(1,14,10): (1,13,10) 0.213294 (1,14,9) 0.112725 (1,15,10) -0.115338
(1,15,1): (1,14,1) 5.267005E-02 (1,15,2) 4.986833E-02
(1,15,2): (1,14,2) 8.429152E-02 (1,15,1) -4.986833E-02 (1,15,3) 9.582369E-02
(1,15,3): (1,14,3) 0.148484 (1,15,2) -9.582369E-02 (1,15,4) 0.123148
(1,15,4): (1,14,4) 0.237573 (1,15,3) -0.123148 (1,15,5) 0.108571
(1,15,5): (1,14,5) 0.321844 (1,15,4) -0.108571 (1,15,6) 4.364003E-02
(1,15,6): (1,14,6) 0.353974 (1,15,5) -4.364003E-02 (1,15,7) -4.001273E-02
(1,15,7): (1,14,7) 0.323627 (1,15,6) 4.001273E-02 (1,15,8) -0.101546
(1,15,8): (1,14,8) 0.242966 (1,15,7) 0.101546 (1,15,9) -0.107933
(1,15,9): (1,14,9) 0.162146 (1,15,8) 0.107933 (1,15,10) -6.594064E-02
(1,15,10): (1,14,10) 0.115338 (1,15,9) 6.594064E-02

 WEL PACKAGE (WEL-1) FLOW RATES   PERIOD      2   STEP       66
 ----------------------------------------------------------------------------------------
   NUMBER   CELLID                    RATE       NAME                                    
 ----------------------------------------------------------------------------------------
     1      (1,8,6)              -203.83288      WEL                                     
 ----------------------------------------------------------------------------------------




 API PACKAGE (MAR) FLOW RATES   PERIOD      2   STEP       66
 -----------------------------------------------
   NUMBER   CELLID                    RATE      
 -----------------------------------------------
     1      (1,6,5)               46.666667     
     2      (1,6,6)               46.666667     
     3      (1,6,7)               46.666667     
     4      (1,10,5)              21.277627     
     5      (1,10,6)              21.277627     
     6      (1,10,7)              21.277627     
 -----------------------------------------------



1
  HEAD IN LAYER   1 AT END OF TIME STEP  66 IN STRESS PERIOD    2
  ---------------------------------------------------------------------------

            1           2           3           4           5           6           7           8           9          10
 ........................................................................................................................
   1   1.2057E-02  1.8707E-02  3.1815E-02  4.9254E-02  6.5162E-02  7.1651E-02  6.5589E-02  5.0525E-02  3.4964E-02  2.5673E-02
   2   1.9345E-02  3.1023E-02  5.4827E-02  8.8039E-02  0.1198      0.1326      0.1205      9.0011E-02  5.9821E-02  4.2397E-02
   3   3.3538E-02  5.6067E-02  0.1042      0.1762      0.2506      0.2795      0.2517      0.1795      0.1127      7.6145E-02
   4   5.0930E-02  8.9355E-02  0.1772      0.3237      0.4971      0.5565      0.4986      0.3284      0.1898      0.1203    
   5   6.0794E-02  0.1126      0.2441      0.5081      0.9206       1.015      0.9223      0.5134      0.2588      0.1500    
   6   4.7663E-02  9.0264E-02  0.2179      0.5823       1.668       1.683       1.670      0.5865      0.2294      0.1192    
   7   9.4483E-03 -4.6909E-05 -3.8502E-02 -0.1575     -0.4938      -1.593     -0.4929     -0.1555     -3.5163E-02  2.9438E-03
   8  -1.8088E-02 -6.7457E-02 -0.2383     -0.7650      -2.423      -8.645      -2.423     -0.7649     -0.2409     -8.3586E-02
   9  -7.8438E-03 -3.9745E-02 -0.1426     -0.4105      -1.016      -2.219      -1.015     -0.4098     -0.1432     -4.8647E-02
  10   2.0288E-02  2.6383E-02  4.3781E-02  0.1207      0.5087      0.3587      0.5096      0.1233      4.9374E-02  3.6680E-02
  11   3.5942E-02  5.8149E-02  0.1097      0.2068      0.3589      0.3663      0.3602      0.2105      0.1188      7.8893E-02
  12   3.4389E-02  5.5466E-02  0.1003      0.1688      0.2437      0.2646      0.2448      0.1723      0.1091      7.5537E-02
  13   2.4575E-02  3.8772E-02  6.7496E-02  0.1075      0.1458      0.1598      0.1467      0.1100      7.3848E-02  5.3043E-02
  14   1.5049E-02  2.3179E-02  3.9119E-02  6.0213E-02  7.9335E-02  8.6838E-02  7.9871E-02  6.1806E-02  4.3051E-02  3.1827E-02
  15   9.7896E-03  1.4769E-02  2.4328E-02  3.6598E-02  4.7404E-02  5.1745E-02  4.7765E-02  3.7659E-02  2.6906E-02  2.0329E-02

 HEAD WILL BE SAVED ON UNIT 1043 AT END OF TIME STEP   66, STRESS PERIOD    2


  VOLUME BUDGET FOR ENTIRE MODEL AT END OF TIME STEP   66, STRESS PERIOD   2
  ---------------------------------------------------------------------------------------------------

     CUMULATIVE VOLUME      L**3       RATES FOR THIS TIME STEP      L**3/T          PACKAGE NAME    
     ------------------                 ------------------------                     ----------------

           IN:                                      IN:
           ---                                      ---
              STO-SS =          23.8566                STO-SS =       1.6322E-02     STORAGE                          
              STO-SY =       56955.9009                STO-SY =          33.7726     STORAGE                          
                 WEL =           0.0000                   WEL =           0.0000     WEL-1                            
                 API =      151575.2567                   API =         203.8329     MAR                              
                 CHD =       2.8247E-08                   CHD =           0.0000     CHD_0                            

            TOTAL IN =      208555.0142              TOTAL IN =         237.6218

          OUT:                                     OUT:
          ----                                     ----
              STO-SS =          29.5530                STO-SS =       1.7311E-02     STORAGE                          
              STO-SY =       56950.2045                STO-SY =          33.7716     STORAGE                          
                 WEL =      151575.2567                   WEL =         203.8329     WEL-1                            
                 API =           0.0000                   API =           0.0000     MAR                              
                 CHD =       3.0388E-08                   CHD =           0.0000     CHD_0                            

           TOTAL OUT =      208555.0142             TOTAL OUT =         237.6218

            IN - OUT =       1.7322E-06              IN - OUT =       9.1638E-09

 PERCENT DISCREPANCY =           0.00     PERCENT DISCREPANCY =           0.00




         TIME SUMMARY AT END OF TIME STEP   66 IN STRESS PERIOD    2
                    SECONDS     MINUTES      HOURS       DAYS        YEARS
                    -----------------------------------------------------------
   TIME STEP LENGTH 8.64000E+05  14400.      240.00      10.000     2.73785E-02
 STRESS PERIOD TIME 5.70240E+07 9.50400E+05  15840.      660.00      1.8070    
         TOTAL TIME 5.71104E+07 9.51840E+05  15864.      661.00      1.8097    


end timestep


start timestep kper="2" kstp="67" mode="normal"

 UBDSV1 SAVING           STO-SS ON UNIT   1042 AT TIME STEP     67, STRESS PERIOD      2
 UBDSV1 SAVING           STO-SY ON UNIT   1042 AT TIME STEP     67, STRESS PERIOD      2
 UBDSV1 SAVING     FLOW-JA-FACE ON UNIT   1042 AT TIME STEP     67, STRESS PERIOD      2
 UBDSV06 SAVING       DATA-SPDIS IN MODEL GWF              PACKAGE NPF             CONNECTED TO MODEL GWF              PACKAGE NPF              ON UNIT   1042 AT TIME STEP     67, STRESS PERIOD      2
 UBDSV06 SAVING              WEL IN MODEL GWF              PACKAGE GWF             CONNECTED TO MODEL GWF              PACKAGE WEL-1            ON UNIT   1042 AT TIME STEP     67, STRESS PERIOD      2
 UBDSV06 SAVING              API IN MODEL GWF              PACKAGE GWF             CONNECTED TO MODEL GWF              PACKAGE MAR              ON UNIT   1042 AT TIME STEP     67, STRESS PERIOD      2
 UBDSV06 SAVING              CHD IN MODEL GWF              PACKAGE GWF             CONNECTED TO MODEL GWF              PACKAGE CHD_0            ON UNIT   1042 AT TIME STEP     67, STRESS PERIOD      2

    CALCULATED INTERCELL FLOW FOR PERIOD 2 STEP 67
(1,1,1): (1,1,2) 6.907912E-02 (1,2,1) 7.535212E-02
(1,1,2): (1,1,1) -6.907912E-02 (1,1,3) 0.135866 (1,2,2) 0.126617
(1,1,3): (1,1,2) -0.135866 (1,1,4) 0.180341 (1,2,3) 0.235740
(1,1,4): (1,1,3) -0.180341 (1,1,5) 0.164266 (1,2,4) 0.397054
(1,1,5): (1,1,4) -0.164266 (1,1,6) 6.704672E-02 (1,2,5) 0.559905
(1,1,6): (1,1,5) -6.704672E-02 (1,1,7) -6.239343E-02 (1,2,6) 0.625271
(1,1,7): (1,1,6) 6.239343E-02 (1,1,8) -0.155200 (1,2,7) 0.562344
(1,1,8): (1,1,7) 0.155200 (1,1,9) -0.160426 (1,2,8) 0.404501
(1,1,9): (1,1,8) 0.160426 (1,1,10) -9.584153E-02 (1,2,9) 0.255061
(1,1,10): (1,1,9) 9.584153E-02 (1,2,10) 0.172235
(1,2,1): (1,1,1) -7.535212E-02 (1,2,2) 0.120341 (1,3,1) 0.145997
(1,2,2): (1,1,2) -0.126617 (1,2,1) -0.120341 (1,2,3) 0.244999 (1,3,2) 0.256455
(1,2,3): (1,1,3) -0.235740 (1,2,2) -0.244999 (1,2,4) 0.341568 (1,3,3) 0.505223
(1,2,4): (1,1,4) -0.397054 (1,2,3) -0.341568 (1,2,5) 0.326750 (1,3,4) 0.905665
(1,2,5): (1,1,5) -0.559905 (1,2,4) -0.326750 (1,2,6) 0.132102 (1,3,5) 1.35053
(1,2,6): (1,1,6) -0.625271 (1,2,5) -0.132102 (1,2,7) -0.125017 (1,3,6) 1.51977
(1,2,7): (1,1,7) -0.562344 (1,2,6) 0.125017 (1,2,8) -0.312661 (1,3,7) 1.35509
(1,2,8): (1,1,8) -0.404501 (1,2,7) 0.312661 (1,2,9) -0.309729 (1,3,8) 0.919633
(1,2,9): (1,1,9) -0.255061 (1,2,8) 0.309729 (1,2,10) -0.178605 (1,3,9) 0.542132
(1,2,10): (1,1,10) -0.172235 (1,2,9) 0.178605 (1,3,10) 0.346469
(1,3,1): (1,2,1) -0.145997 (1,3,2) 0.230771 (1,4,1) 0.177392
(1,3,2): (1,2,2) -0.256455 (1,3,1) -0.230771 (1,3,3) 0.493738 (1,4,2) 0.338847
(1,3,3): (1,2,3) -0.505223 (1,3,2) -0.493738 (1,3,4) 0.741381 (1,4,3) 0.746271
(1,3,4): (1,2,4) -0.905665 (1,3,3) -0.741381 (1,3,5) 0.769195 (1,4,4) 1.52575
(1,3,5): (1,2,5) -1.35053 (1,3,4) -0.769195 (1,3,6) 0.299429 (1,4,5) 2.59140
(1,3,6): (1,2,6) -1.51977 (1,3,5) -0.299429 (1,3,7) -0.287823 (1,4,6) 2.92819
(1,3,7): (1,2,7) -1.35509 (1,3,6) 0.287823 (1,3,8) -0.745629 (1,4,7) 2.59663
(1,3,8): (1,2,8) -0.919633 (1,3,7) 0.745629 (1,3,9) -0.686389 (1,4,8) 1.54173
(1,3,9): (1,2,9) -0.542132 (1,3,8) 0.686389 (1,3,10) -0.373947 (1,4,9) 0.789744
(1,3,10): (1,2,10) -0.346469 (1,3,9) 0.373947 (1,4,10) 0.451248
(1,4,1): (1,3,1) -0.177392 (1,4,2) 0.392310 (1,5,1) 9.815698E-02
(1,4,2): (1,3,2) -0.338847 (1,4,1) -0.392310 (1,4,3) 0.901770 (1,5,2) 0.232754
(1,4,3): (1,3,3) -0.746271 (1,4,2) -0.901770 (1,4,4) 1.52083 (1,5,3) 0.681060
(1,4,4): (1,3,4) -1.52575 (1,4,3) -1.52083 (1,4,5) 1.82764 (1,5,4) 1.93066
(1,4,5): (1,3,5) -2.59140 (1,4,4) -1.82764 (1,4,6) 0.629584 (1,5,5) 4.61452
(1,4,6): (1,3,6) -2.92819 (1,4,5) -0.629584 (1,4,7) -0.612802 (1,5,6) 5.04408
(1,4,7): (1,3,7) -2.59663 (1,4,6) 0.612802 (1,4,8) -1.79302 (1,5,7) 4.61726
(1,4,8): (1,3,8) -1.54173 (1,4,7) 1.79302 (1,4,9) -1.43766 (1,5,8) 1.93832
(1,4,9): (1,3,9) -0.789744 (1,4,8) 1.43766 (1,4,10) -0.712193 (1,5,9) 0.702905
(1,4,10): (1,3,10) -0.451248 (1,4,9) 0.712193 (1,5,10) 0.297891
(1,5,1): (1,4,1) -9.815698E-02 (1,5,2) 0.527292 (1,6,1) -0.137917
(1,5,2): (1,4,2) -0.232754 (1,5,1) -0.527292 (1,5,3) 1.35293 (1,6,2) -0.234551
(1,5,3): (1,4,3) -0.681060 (1,5,2) -1.35293 (1,5,4) 2.77990 (1,6,3) -0.281899
(1,5,4): (1,4,4) -1.93066 (1,5,3) -2.77990 (1,5,5) 4.50919 (1,6,4) 0.766001
(1,5,5): (1,4,5) -4.61452 (1,5,4) -4.50919 (1,5,6) 1.04632 (1,6,5) 8.70208
(1,5,6): (1,4,6) -5.04408 (1,5,5) -1.04632 (1,5,7) -1.02680 (1,6,6) 7.77980
(1,5,7): (1,4,7) -4.61726 (1,5,6) 1.02680 (1,5,8) -4.46872 (1,6,7) 8.69880
(1,5,8): (1,4,8) -1.93832 (1,5,7) 4.46872 (1,5,9) -2.68125 (1,6,8) 0.753999
(1,5,9): (1,4,9) -0.702905 (1,5,8) 2.68125 (1,5,10) -1.11879 (1,6,9) -0.316721
(1,5,10): (1,4,10) -0.297891 (1,5,9) 1.11879 (1,6,10) -0.324557
(1,6,1): (1,5,1) 0.137917 (1,6,2) 0.430384 (1,7,1) -0.392249
(1,6,2): (1,5,2) 0.234551 (1,6,1) -0.430384 (1,6,3) 1.30513 (1,7,2) -0.923375
(1,6,3): (1,5,3) 0.281899 (1,6,2) -1.30513 (1,6,4) 3.85621 (1,7,3) -2.63902
(1,6,4): (1,5,4) -0.766001 (1,6,3) -3.85621 (1,6,5) 12.6745 (1,7,4) -7.85397
(1,6,5): (1,5,5) -8.70208 (1,6,4) -12.6745 (1,6,6) 0.176037 (1,7,5) -25.2569
(1,6,6): (1,5,6) -7.77980 (1,6,5) -0.176037 (1,6,7) -0.159661 (1,7,6) -38.3011
(1,6,7): (1,5,7) -8.69880 (1,6,6) 0.159661 (1,6,8) -12.6413 (1,7,7) -25.2664
(1,6,8): (1,5,8) -0.753999 (1,6,7) 12.6413 (1,6,9) -3.78019 (1,7,8) -7.88236
(1,6,9): (1,5,9) 0.316721 (1,6,8) 3.78019 (1,6,10) -1.12672 (1,7,9) -2.72730
(1,6,10): (1,5,10) 0.324557 (1,6,9) 1.12672 (1,7,10) -1.19322
(1,7,1): (1,6,1) 0.392249 (1,7,2) -9.827532E-02 (1,8,1) -0.282048
(1,7,2): (1,6,2) 0.923375 (1,7,1) 9.827532E-02 (1,7,3) -0.390278 (1,8,2) -0.684075
(1,7,3): (1,6,3) 2.63902 (1,7,2) 0.390278 (1,7,4) -1.19024 (1,8,3) -2.00665
(1,7,4): (1,6,4) 7.85397 (1,7,3) 1.19024 (1,7,5) -3.30791 (1,8,4) -6.00366
(1,7,5): (1,6,5) 25.2569 (1,7,4) 3.30791 (1,7,6) -10.4414 (1,8,5) -18.3654
(1,7,6): (1,6,6) 38.3011 (1,7,5) 10.4414 (1,7,7) 10.4503 (1,8,6) -59.2904
(1,7,7): (1,6,7) 25.2664 (1,7,6) -10.4503 (1,7,8) 3.31999 (1,8,7) -18.3718
(1,7,8): (1,6,8) 7.88236 (1,7,7) -3.31999 (1,7,9) 1.20431 (1,8,8) -6.02328
(1,7,9): (1,6,9) 2.72730 (1,7,8) -1.20431 (1,7,10) 0.385595 (1,8,9) -2.06888
(1,7,10): (1,6,10) 1.19322 (1,7,9) -0.385595 (1,8,10) -0.879278
(1,8,1): (1,7,1) 0.282048 (1,8,2) -0.499563 (1,9,1) 0.101026
(1,8,2): (1,7,2) 0.684075 (1,8,1) 0.499563 (1,8,3) -1.70894 (1,9,2) 0.272604
(1,8,3): (1,7,3) 2.00665 (1,8,2) 1.70894 (1,8,4) -5.15376 (1,9,3) 0.933773
(1,8,4): (1,7,4) 6.00366 (1,8,3) 5.15376 (1,8,5) -15.3075 (1,9,4) 3.37873
(1,8,5): (1,7,5) 18.3654 (1,8,4) 15.3075 (1,8,6) -47.0974 (1,9,5) 12.5990
(1,8,6): (1,7,6) 59.2904 (1,8,5) 47.0974 (1,8,7) 47.1021 (1,9,6) 49.8995
(1,8,7): (1,7,7) 18.3718 (1,8,6) -47.1021 (1,8,8) 15.3058 (1,9,7) 12.6010
(1,8,8): (1,7,8) 6.02328 (1,8,7) -15.3058 (1,8,9) 5.12364 (1,9,8) 3.38495
(1,8,9): (1,7,9) 2.06888 (1,8,8) -5.12364 (1,8,10) 1.56928 (1,9,9) 0.954687
(1,8,10): (1,7,10) 0.879278 (1,8,9) -1.56928 (1,9,10) 0.343240
(1,9,1): (1,8,1) -0.101026 (1,9,2) -0.327595 (1,10,1) 0.285539
(1,9,2): (1,8,2) -0.272604 (1,9,1) 0.327595 (1,9,3) -1.04256 (1,10,2) 0.667208
(1,9,3): (1,8,3) -0.933773 (1,9,2) 1.04256 (1,9,4) -2.66356 (1,10,3) 1.87569
(1,9,4): (1,8,4) -3.37873 (1,9,3) 2.66356 (1,9,5) -5.81956 (1,10,4) 5.37233
(1,9,5): (1,8,5) -12.5990 (1,9,4) 5.81956 (1,9,6) -10.8013 (1,10,5) 15.9860
(1,9,6): (1,8,6) -49.8995 (1,9,5) 10.8013 (1,9,7) 10.8064 (1,10,6) 26.6455
(1,9,7): (1,8,7) -12.6010 (1,9,6) -10.8064 (1,9,8) 5.82249 (1,10,7) 15.9919
(1,9,8): (1,8,8) -3.38495 (1,9,7) -5.82249 (1,9,9) 2.64930 (1,10,8) 5.39211
(1,9,9): (1,8,9) -0.954687 (1,9,8) -2.64930 (1,9,10) 0.954007 (1,10,9) 1.93912
(1,9,10): (1,8,10) -0.343240 (1,9,9) -0.954007 (1,10,10) 0.862411
(1,10,1): (1,9,1) -0.285539 (1,10,2) 5.281714E-02 (1,11,1) 0.162813
(1,10,2): (1,9,2) -0.667208 (1,10,1) -5.281714E-02 (1,10,3) 0.156289 (1,11,2) 0.328428
(1,10,3): (1,9,3) -1.87569 (1,10,2) -0.156289 (1,10,4) 0.748746 (1,11,3) 0.681246
(1,10,4): (1,9,4) -5.37233 (1,10,3) -0.748746 (1,10,5) 4.03415 (1,11,4) 0.904142
(1,10,5): (1,9,5) -15.9860 (1,10,4) -4.03415 (1,10,6) -1.58520 (1,11,5) -1.52922
(1,10,6): (1,9,6) -26.6455 (1,10,5) 1.58520 (1,10,7) 1.59512 (1,11,6) 0.123985
(1,10,7): (1,9,7) -15.9919 (1,10,6) -1.59512 (1,10,8) -4.01723 (1,11,7) -1.52584
(1,10,8): (1,9,8) -5.39211 (1,10,7) 4.01723 (1,10,9) -0.718971 (1,11,8) 0.916398
(1,10,9): (1,9,9) -1.93912 (1,10,8) 0.718971 (1,10,10) -0.112428 (1,11,9) 0.719532
(1,10,10): (1,9,10) -0.862411 (1,10,9) 0.112428 (1,11,10) 0.437753
(1,11,1): (1,10,1) -0.162813 (1,11,2) 0.218253 (1,12,1) -1.154514E-02
(1,11,2): (1,10,2) -0.328428 (1,11,1) -0.218253 (1,11,3) 0.508513 (1,12,2) -1.945029E-02
(1,11,3): (1,10,3) -0.681246 (1,11,2) -0.508513 (1,11,4) 0.971782 (1,12,3) -7.996820E-02
(1,11,4): (1,10,4) -0.904142 (1,11,3) -0.971782 (1,11,5) 1.55274 (1,12,4) -0.362159
(1,11,5): (1,10,5) 1.52922 (1,11,4) -1.55274 (1,11,6) 6.874713E-02 (1,12,5) -1.15485
(1,11,6): (1,10,6) -0.123985 (1,11,5) -6.874713E-02 (1,11,7) -5.562044E-02 (1,12,6) -1.01180
(1,11,7): (1,10,7) 1.52584 (1,11,6) 5.562044E-02 (1,11,8) -1.52728 (1,12,7) -1.15572
(1,11,8): (1,10,8) -0.916398 (1,11,7) 1.52728 (1,11,9) -0.915836 (1,12,8) -0.363988
(1,11,9): (1,10,9) -0.719532 (1,11,8) 0.915836 (1,11,10) -0.393314 (1,12,9) -8.291960E-02
(1,11,10): (1,10,10) -0.437753 (1,11,9) 0.393314 (1,12,10) -2.360283E-02
(1,12,1): (1,11,1) 1.154514E-02 (1,12,2) 0.210332 (1,13,1) -9.748999E-02
(1,12,2): (1,11,2) 1.945029E-02 (1,12,1) -0.210332 (1,12,3) 0.447742 (1,13,2) -0.164762
(1,12,3): (1,11,3) 7.996820E-02 (1,12,2) -0.447742 (1,12,4) 0.687944 (1,13,3) -0.323184
(1,12,4): (1,11,4) 0.362159 (1,12,3) -0.687944 (1,12,5) 0.757125 (1,13,4) -0.608359
(1,12,5): (1,11,5) 1.15485 (1,12,4) -0.757125 (1,12,6) 0.210535 (1,13,5) -0.979801
(1,12,6): (1,11,6) 1.01180 (1,12,5) -0.210535 (1,12,7) -0.198255 (1,13,6) -1.05018
(1,12,7): (1,11,7) 1.15572 (1,12,6) 0.198255 (1,12,8) -0.732817 (1,13,7) -0.983089
(1,12,8): (1,11,8) 0.363988 (1,12,7) 0.732817 (1,12,9) -0.633283 (1,13,8) -0.618121
(1,12,9): (1,11,9) 8.291960E-02 (1,12,8) 0.633283 (1,12,10) -0.333818 (1,13,9) -0.347923
(1,12,10): (1,11,10) 2.360283E-02 (1,12,9) 0.333818 (1,13,10) -0.222506
(1,13,1): (1,12,1) 9.748999E-02 (1,13,2) 0.143030 (1,14,1) -9.644043E-02
(1,13,2): (1,12,2) 0.164762 (1,13,1) -0.143030 (1,13,3) 0.289128 (1,14,2) -0.156725
(1,13,3): (1,12,3) 0.323184 (1,13,2) -0.289128 (1,13,4) 0.402551 (1,14,3) -0.283991
(1,13,4): (1,12,4) 0.608359 (1,13,3) -0.402551 (1,13,5) 0.386462 (1,14,4) -0.472993
(1,13,5): (1,12,5) 0.979801 (1,13,4) -0.386462 (1,13,6) 0.140704 (1,14,5) -0.666563
(1,13,6): (1,12,6) 1.05018 (1,13,5) -0.140704 (1,13,7) -0.131695 (1,14,6) -0.731701
(1,13,7): (1,12,7) 0.983089 (1,13,6) 0.131695 (1,13,8) -0.368710 (1,14,7) -0.669832
(1,13,8): (1,12,8) 0.618121 (1,13,7) 0.368710 (1,13,9) -0.363045 (1,14,8) -0.482819
(1,13,9): (1,12,9) 0.347923 (1,13,8) 0.363045 (1,13,10) -0.208417 (1,14,9) -0.308860
(1,13,10): (1,12,10) 0.222506 (1,13,9) 0.208417 (1,14,10) -0.213667
(1,14,1): (1,13,1) 9.644043E-02 (1,14,2) 8.275288E-02 (1,15,1) -5.370241E-02
(1,14,2): (1,13,2) 0.156725 (1,14,1) -8.275288E-02 (1,14,3) 0.161855 (1,15,2) -8.522698E-02
(1,14,3): (1,13,3) 0.283991 (1,14,2) -0.161855 (1,14,4) 0.213679 (1,15,3) -0.149019
(1,14,4): (1,13,4) 0.472993 (1,14,3) -0.213679 (1,14,5) 0.193414 (1,15,4) -0.237268
(1,14,5): (1,13,5) 0.666563 (1,14,4) -0.193414 (1,14,6) 7.593335E-02 (1,15,5) -0.320564
(1,14,6): (1,13,6) 0.731701 (1,14,5) -7.593335E-02 (1,14,7) -7.018032E-02 (1,15,6) -0.352286
(1,14,7): (1,13,7) 0.669832 (1,14,6) 7.018032E-02 (1,14,8) -0.182238 (1,15,7) -0.322421
(1,14,8): (1,13,8) 0.482819 (1,14,7) 0.182238 (1,14,9) -0.189289 (1,15,8) -0.242835
(1,14,9): (1,13,9) 0.308860 (1,14,8) 0.189289 (1,14,10) -0.113317 (1,15,9) -0.162988
(1,14,10): (1,13,10) 0.213667 (1,14,9) 0.113317 (1,15,10) -0.116683
(1,15,1): (1,14,1) 5.370241E-02 (1,15,2) 5.122908E-02
(1,15,2): (1,14,2) 8.522698E-02 (1,15,1) -5.122908E-02 (1,15,3) 9.805471E-02
(1,15,3): (1,14,3) 0.149019 (1,15,2) -9.805471E-02 (1,15,4) 0.125451
(1,15,4): (1,14,4) 0.237268 (1,15,3) -0.125451 (1,15,5) 0.110222
(1,15,5): (1,14,5) 0.320564 (1,15,4) -0.110222 (1,15,6) 4.429663E-02
(1,15,6): (1,14,6) 0.352286 (1,15,5) -4.429663E-02 (1,15,7) -4.039670E-02
(1,15,7): (1,14,7) 0.322421 (1,15,6) 4.039670E-02 (1,15,8) -0.102761
(1,15,8): (1,14,8) 0.242835 (1,15,7) 0.102761 (1,15,9) -0.109485
(1,15,9): (1,14,9) 0.162988 (1,15,8) 0.109485 (1,15,10) -6.703575E-02
(1,15,10): (1,14,10) 0.116683 (1,15,9) 6.703575E-02

 WEL PACKAGE (WEL-1) FLOW RATES   PERIOD      2   STEP       67
 ----------------------------------------------------------------------------------------
   NUMBER   CELLID                    RATE       NAME                                    
 ----------------------------------------------------------------------------------------
     1      (1,8,6)              -203.62461      WEL                                     
 ----------------------------------------------------------------------------------------




 API PACKAGE (MAR) FLOW RATES   PERIOD      2   STEP       67
 -----------------------------------------------
   NUMBER   CELLID                    RATE      
 -----------------------------------------------
     1      (1,6,5)               46.666667     
     2      (1,6,6)               46.666667     
     3      (1,6,7)               46.666667     
     4      (1,10,5)              21.208203     
     5      (1,10,6)              21.208203     
     6      (1,10,7)              21.208203     
 -----------------------------------------------



1
  HEAD IN LAYER   1 AT END OF TIME STEP  67 IN STRESS PERIOD    2
  ---------------------------------------------------------------------------

            1           2           3           4           5           6           7           8           9          10
 ........................................................................................................................
   1   1.2779E-02  1.9674E-02  3.3215E-02  5.1157E-02  6.7474E-02  7.4129E-02  6.7936E-02  5.2521E-02  3.6562E-02  2.7013E-02
   2   2.0299E-02  3.2294E-02  5.6656E-02  9.0507E-02  0.1228      0.1358      0.1235      9.2600E-02  6.1911E-02  4.4160E-02
   3   3.4848E-02  5.7793E-02  0.1066      0.1795      0.2545      0.2836      0.2556      0.1829      0.1155      7.8537E-02
   4   5.2495E-02  9.1370E-02  0.1800      0.3272      0.5013      0.5609      0.5028      0.3321      0.1930      0.1231    
   5   6.2250E-02  0.1144      0.2464      0.5109      0.9237       1.019      0.9255      0.5164      0.2615      0.1525    
   6   4.8543E-02  9.1193E-02  0.2189      0.5833       1.669       1.684       1.671      0.5877      0.2306      0.1205    
   7   9.5079E-03 -3.1029E-04 -3.9339E-02 -0.1588     -0.4950      -1.593     -0.4941     -0.1568     -3.5964E-02  2.5857E-03
   8  -1.8670E-02 -6.8720E-02 -0.2408     -0.7689      -2.427      -8.646      -2.427     -0.7688     -0.2436     -8.5319E-02
   9  -8.5588E-03 -4.1346E-02 -0.1460     -0.4163      -1.024      -2.227      -1.023     -0.4156     -0.1467     -5.0820E-02
  10   1.9938E-02  2.5207E-02  4.0772E-02  0.1148      0.4990      0.3481      0.5000      0.1174      4.6310E-02  3.5119E-02
  11   3.6161E-02  5.7861E-02  0.1082      0.2034      0.3534      0.3600      0.3547      0.2072      0.1174      7.8553E-02
  12   3.5011E-02  5.5927E-02  0.1003      0.1679      0.2418      0.2624      0.2430      0.1715      0.1092      7.6211E-02
  13   2.5296E-02  3.9542E-02  6.8259E-02  0.1081      0.1462      0.1600      0.1471      0.1107      7.4816E-02  5.4129E-02
  14   1.5676E-02  2.3931E-02  4.0052E-02  6.1290E-02  8.0477E-02  8.8004E-02  8.1047E-02  6.2970E-02  4.4160E-02  3.2878E-02
  15   1.0314E-02  1.5429E-02  2.5210E-02  3.7708E-02  4.8677E-02  5.3083E-02  4.9064E-02  3.8838E-02  2.7932E-02  2.1247E-02

 HEAD WILL BE SAVED ON UNIT 1043 AT END OF TIME STEP   67, STRESS PERIOD    2


  VOLUME BUDGET FOR ENTIRE MODEL AT END OF TIME STEP   67, STRESS PERIOD   2
  ---------------------------------------------------------------------------------------------------

     CUMULATIVE VOLUME      L**3       RATES FOR THIS TIME STEP      L**3/T          PACKAGE NAME    
     ------------------                 ------------------------                     ----------------

           IN:                                      IN:
           ---                                      ---
              STO-SS =          24.0180                STO-SS =       1.6137E-02     STORAGE                          
              STO-SY =       57289.7513                STO-SY =          33.3850     STORAGE                          
                 WEL =           0.0000                   WEL =           0.0000     WEL-1                            
                 API =      153611.5028                   API =         203.6246     MAR                              
                 CHD =       2.8247E-08                   CHD =           0.0000     CHD_0                            

            TOTAL IN =      210925.2720              TOTAL IN =         237.0258

          OUT:                                     OUT:
          ----                                     ----
              STO-SS =          29.7241                STO-SS =       1.7114E-02     STORAGE                          
              STO-SY =       57284.0452                STO-SY =          33.3841     STORAGE                          
                 WEL =      153611.5027                   WEL =         203.6246     WEL-1                            
                 API =           0.0000                   API =           0.0000     MAR                              
                 CHD =       3.0388E-08                   CHD =           0.0000     CHD_0                            

           TOTAL OUT =      210925.2720             TOTAL OUT =         237.0258

            IN - OUT =       1.8258E-06              IN - OUT =       9.3594E-09

 PERCENT DISCREPANCY =           0.00     PERCENT DISCREPANCY =           0.00




         TIME SUMMARY AT END OF TIME STEP   67 IN STRESS PERIOD    2
                    SECONDS     MINUTES      HOURS       DAYS        YEARS
                    -----------------------------------------------------------
   TIME STEP LENGTH 8.64000E+05  14400.      240.00      10.000     2.73785E-02
 STRESS PERIOD TIME 5.78880E+07 9.64800E+05  16080.      670.00      1.8344    
         TOTAL TIME 5.79744E+07 9.66240E+05  16104.      671.00      1.8371    


end timestep


start timestep kper="2" kstp="68" mode="normal"

 UBDSV1 SAVING           STO-SS ON UNIT   1042 AT TIME STEP     68, STRESS PERIOD      2
 UBDSV1 SAVING           STO-SY ON UNIT   1042 AT TIME STEP     68, STRESS PERIOD      2
 UBDSV1 SAVING     FLOW-JA-FACE ON UNIT   1042 AT TIME STEP     68, STRESS PERIOD      2
 UBDSV06 SAVING       DATA-SPDIS IN MODEL GWF              PACKAGE NPF             CONNECTED TO MODEL GWF              PACKAGE NPF              ON UNIT   1042 AT TIME STEP     68, STRESS PERIOD      2
 UBDSV06 SAVING              WEL IN MODEL GWF              PACKAGE GWF             CONNECTED TO MODEL GWF              PACKAGE WEL-1            ON UNIT   1042 AT TIME STEP     68, STRESS PERIOD      2
 UBDSV06 SAVING              API IN MODEL GWF              PACKAGE GWF             CONNECTED TO MODEL GWF              PACKAGE MAR              ON UNIT   1042 AT TIME STEP     68, STRESS PERIOD      2
 UBDSV06 SAVING              CHD IN MODEL GWF              PACKAGE GWF             CONNECTED TO MODEL GWF              PACKAGE CHD_0            ON UNIT   1042 AT TIME STEP     68, STRESS PERIOD      2

    CALCULATED INTERCELL FLOW FOR PERIOD 2 STEP 68
(1,1,1): (1,1,2) 7.154584E-02 (1,2,1) 7.767070E-02
(1,1,2): (1,1,1) -7.154584E-02 (1,1,3) 0.140240 (1,2,2) 0.129644
(1,1,3): (1,1,2) -0.140240 (1,1,4) 0.185423 (1,2,3) 0.239984
(1,1,4): (1,1,3) -0.185423 (1,1,5) 0.168394 (1,2,4) 0.402654
(1,1,5): (1,1,4) -0.168394 (1,1,6) 6.872676E-02 (1,2,5) 0.566566
(1,1,6): (1,1,5) -6.872676E-02 (1,1,7) -6.370936E-02 (1,2,6) 0.632367
(1,1,7): (1,1,6) 6.370936E-02 (1,1,8) -0.158728 (1,2,7) 0.569125
(1,1,8): (1,1,7) 0.158728 (1,1,9) -0.164417 (1,2,8) 0.410411
(1,1,9): (1,1,8) 0.164417 (1,1,10) -9.841967E-02 (1,2,9) 0.259952
(1,1,10): (1,1,9) 9.841967E-02 (1,2,10) 0.176446
(1,2,1): (1,1,1) -7.767070E-02 (1,2,2) 0.123516 (1,3,1) 0.149521
(1,2,2): (1,1,2) -0.129644 (1,2,1) -0.123516 (1,2,3) 0.250591 (1,3,2) 0.260942
(1,2,3): (1,1,3) -0.239984 (1,2,2) -0.250591 (1,2,4) 0.348006 (1,3,3) 0.511308
(1,2,4): (1,1,4) -0.402654 (1,2,3) -0.348006 (1,2,5) 0.331934 (1,3,4) 0.913440
(1,2,5): (1,1,5) -0.566566 (1,2,4) -0.331934 (1,2,6) 0.134212 (1,3,5) 1.35957
(1,2,6): (1,1,6) -0.632367 (1,2,5) -0.134212 (1,2,7) -0.126644 (1,3,6) 1.52934
(1,2,7): (1,1,7) -0.569125 (1,2,6) 0.126644 (1,2,8) -0.317054 (1,3,7) 1.36431
(1,2,8): (1,1,8) -0.410411 (1,2,7) 0.317054 (1,2,9) -0.314736 (1,3,8) 0.927893
(1,2,9): (1,1,9) -0.259952 (1,2,8) 0.314736 (1,2,10) -0.181861 (1,3,9) 0.549205
(1,2,10): (1,1,10) -0.176446 (1,2,9) 0.181861 (1,3,10) 0.352716
(1,3,1): (1,2,1) -0.149521 (1,3,2) 0.234908 (1,4,1) 0.179864
(1,3,2): (1,2,2) -0.260942 (1,3,1) -0.234908 (1,3,3) 0.500932 (1,4,2) 0.341668
(1,3,3): (1,2,3) -0.511308 (1,3,2) -0.500932 (1,3,4) 0.749507 (1,4,3) 0.749524
(1,3,4): (1,2,4) -0.913440 (1,3,3) -0.749507 (1,3,5) 0.775623 (1,4,4) 1.52922
(1,3,5): (1,2,5) -1.35957 (1,3,4) -0.775623 (1,3,6) 0.302058 (1,4,5) 2.59484
(1,3,6): (1,2,6) -1.52934 (1,3,5) -0.302058 (1,3,7) -0.289779 (1,4,6) 2.93174
(1,3,7): (1,2,7) -1.36431 (1,3,6) 0.289779 (1,3,8) -0.750968 (1,4,7) 2.60023
(1,3,8): (1,2,8) -0.927893 (1,3,7) 0.750968 (1,3,9) -0.692574 (1,4,8) 1.54558
(1,3,9): (1,2,9) -0.549205 (1,3,8) 0.692574 (1,3,10) -0.378023 (1,4,9) 0.793697
(1,3,10): (1,2,10) -0.352716 (1,3,9) 0.378023 (1,4,10) 0.455180
(1,4,1): (1,3,1) -0.179864 (1,4,2) 0.396799 (1,5,1) 9.696441E-02
(1,4,2): (1,3,2) -0.341668 (1,4,1) -0.396799 (1,4,3) 0.909413 (1,5,2) 0.230406
(1,4,3): (1,3,3) -0.749524 (1,4,2) -0.909413 (1,4,4) 1.52920 (1,5,3) 0.676520
(1,4,4): (1,3,4) -1.52922 (1,4,3) -1.52920 (1,4,5) 1.83408 (1,5,4) 1.92342
(1,4,5): (1,3,5) -2.59484 (1,4,4) -1.83408 (1,4,6) 0.632317 (1,5,5) 4.60494
(1,4,6): (1,3,6) -2.93174 (1,4,5) -0.632317 (1,4,7) -0.614701 (1,5,6) 5.03404
(1,4,7): (1,3,7) -2.60023 (1,4,6) 0.614701 (1,4,8) -1.79815 (1,5,7) 4.60768
(1,4,8): (1,3,8) -1.54558 (1,4,7) 1.79815 (1,4,9) -1.44375 (1,5,8) 1.93100
(1,4,9): (1,3,9) -0.793697 (1,4,8) 1.44375 (1,4,10) -0.716290 (1,5,9) 0.698051
(1,4,10): (1,3,10) -0.455180 (1,4,9) 0.716290 (1,5,10) 0.294628
(1,5,1): (1,4,1) -9.696441E-02 (1,5,2) 0.530630 (1,6,1) -0.143760
(1,5,2): (1,4,2) -0.230406 (1,5,1) -0.530630 (1,5,3) 1.35840 (1,6,2) -0.243260
(1,5,3): (1,4,3) -0.676520 (1,5,2) -1.35840 (1,5,4) 2.78569 (1,6,3) -0.295574
(1,5,4): (1,4,4) -1.92342 (1,5,3) -2.78569 (1,5,5) 4.51360 (1,6,4) 0.747137
(1,5,5): (1,4,5) -4.60494 (1,5,4) -4.51360 (1,5,6) 1.04866 (1,6,5) 8.67925
(1,5,6): (1,4,6) -5.03404 (1,5,5) -1.04866 (1,5,7) -1.02830 (1,6,6) 7.75718
(1,5,7): (1,4,7) -4.60768 (1,5,6) 1.02830 (1,5,8) -4.47187 (1,6,7) 8.67575
(1,5,8): (1,4,8) -1.93100 (1,5,7) 4.47187 (1,5,9) -2.68498 (1,6,8) 0.734481
(1,5,9): (1,4,9) -0.698051 (1,5,8) 2.68498 (1,5,10) -1.12132 (1,6,9) -0.331982
(1,5,10): (1,4,10) -0.294628 (1,5,9) 1.12132 (1,6,10) -0.336669
(1,6,1): (1,5,1) 0.143760 (1,6,2) 0.430853 (1,7,1) -0.400497
(1,6,2): (1,5,2) 0.243260 (1,6,1) -0.430853 (1,6,3) 1.30559 (1,7,2) -0.935345
(1,6,3): (1,5,3) 0.295574 (1,6,2) -1.30559 (1,6,4) 3.85678 (1,7,3) -2.65735
(1,6,4): (1,5,4) -0.747137 (1,6,3) -3.85678 (1,6,5) 12.6762 (1,7,4) -7.87867
(1,6,5): (1,5,5) -8.67925 (1,6,4) -12.6762 (1,6,6) 0.178394 (1,7,5) -25.2847
(1,6,6): (1,5,6) -7.75718 (1,6,5) -0.178394 (1,6,7) -0.161392 (1,7,6) -38.3248
(1,6,7): (1,5,7) -8.67575 (1,6,6) 0.161392 (1,6,8) -12.6422 (1,7,7) -25.2946
(1,6,8): (1,5,8) -0.734481 (1,6,7) 12.6422 (1,6,9) -3.77965 (1,7,8) -7.90801
(1,6,9): (1,5,9) 0.331982 (1,6,8) 3.77965 (1,6,10) -1.12607 (1,7,9) -2.74785
(1,6,10): (1,5,10) 0.336669 (1,6,9) 1.12607 (1,7,10) -1.20985
(1,7,1): (1,6,1) 0.400497 (1,7,2) -0.101456 (1,8,1) -0.288486
(1,7,2): (1,6,2) 0.935345 (1,7,1) 0.101456 (1,7,3) -0.395847 (1,8,2) -0.693980
(1,7,3): (1,6,3) 2.65735 (1,7,2) 0.395847 (1,7,4) -1.19488 (1,8,3) -2.02299
(1,7,4): (1,6,4) 7.87867 (1,7,3) 1.19488 (1,7,5) -3.30615 (1,8,4) -6.02714
(1,7,5): (1,6,5) 25.2847 (1,7,4) 3.30615 (1,7,6) -10.4334 (1,8,5) -18.3902
(1,7,6): (1,6,6) 38.3248 (1,7,5) 10.4334 (1,7,7) 10.4427 (1,8,6) -59.2929
(1,7,7): (1,6,7) 25.2946 (1,7,6) -10.4427 (1,7,8) 3.31846 (1,8,7) -18.3969
(1,7,8): (1,6,8) 7.90801 (1,7,7) -3.31846 (1,7,9) 1.20876 (1,8,8) -6.04746
(1,7,9): (1,6,9) 2.74785 (1,7,8) -1.20876 (1,7,10) 0.389834 (1,8,9) -2.08691
(1,7,10): (1,6,10) 1.20985 (1,7,9) -0.389834 (1,8,10) -0.892910
(1,8,1): (1,7,1) 0.288486 (1,8,2) -0.506192 (1,9,1) 9.958680E-02
(1,8,2): (1,7,2) 0.693980 (1,8,1) 0.506192 (1,8,3) -1.72087 (1,9,2) 0.269085
(1,8,3): (1,7,3) 2.02299 (1,8,2) 1.72087 (1,8,4) -5.16498 (1,9,3) 0.924806
(1,8,4): (1,7,4) 6.02714 (1,8,3) 5.16498 (1,8,5) -15.3035 (1,9,4) 3.35817
(1,8,5): (1,7,5) 18.3902 (1,8,4) 15.3035 (1,8,6) -47.0507 (1,9,5) 12.5542
(1,8,6): (1,7,6) 59.2929 (1,8,5) 47.0507 (1,8,7) 47.0556 (1,9,6) 49.7944
(1,8,7): (1,7,7) 18.3969 (1,8,6) -47.0556 (1,8,8) 15.3016 (1,9,7) 12.5563
(1,8,8): (1,7,8) 6.04746 (1,8,7) -15.3016 (1,8,9) 5.13361 (1,9,8) 3.36432
(1,8,9): (1,7,9) 2.08691 (1,8,8) -5.13361 (1,8,10) 1.57779 (1,9,9) 0.945402
(1,8,10): (1,7,10) 0.892910 (1,8,9) -1.57779 (1,9,10) 0.338625
(1,9,1): (1,8,1) -9.958680E-02 (1,9,2) -0.336290 (1,10,1) 0.289073
(1,9,2): (1,8,2) -0.269085 (1,9,1) 0.336290 (1,9,3) -1.05984 (1,10,2) 0.671187
(1,9,3): (1,8,3) -0.924806 (1,9,2) 1.05984 (1,9,4) -2.68572 (1,10,3) 1.87869
(1,9,4): (1,8,4) -3.35817 (1,9,3) 2.68572 (1,9,5) -5.83608 (1,10,4) 5.36792
(1,9,5): (1,8,5) -12.5542 (1,9,4) 5.83608 (1,9,6) -10.7942 (1,10,5) 15.9544
(1,9,6): (1,8,6) -49.7944 (1,9,5) 10.7942 (1,9,7) 10.7993 (1,10,6) 26.5939
(1,9,7): (1,8,7) -12.5563 (1,9,6) -10.7993 (1,9,8) 5.83872 (1,10,7) 15.9605
(1,9,8): (1,8,8) -3.36432 (1,9,7) -5.83872 (1,9,9) 2.67000 (1,10,8) 5.38815
(1,9,9): (1,8,9) -0.945402 (1,9,8) -2.67000 (1,9,10) 0.967100 (1,10,9) 1.94310
(1,9,10): (1,8,10) -0.338625 (1,9,9) -0.967100 (1,10,10) 0.868137
(1,10,1): (1,9,1) -0.289073 (1,10,2) 4.457468E-02 (1,11,1) 0.168492
(1,10,2): (1,9,2) -0.671187 (1,10,1) -4.457468E-02 (1,10,3) 0.138152 (1,11,2) 0.337193
(1,10,3): (1,9,3) -1.87869 (1,10,2) -0.138152 (1,10,4) 0.719742 (1,11,3) 0.696067
(1,10,4): (1,9,4) -5.36792 (1,10,3) -0.719742 (1,10,5) 3.99275 (1,11,4) 0.928313
(1,10,5): (1,9,5) -15.9544 (1,10,4) -3.99275 (1,10,6) -1.59426 (1,11,5) -1.48658
(1,10,6): (1,9,6) -26.5939 (1,10,5) 1.59426 (1,10,7) 1.60439 (1,11,6) 0.167411
(1,10,7): (1,9,7) -15.9605 (1,10,6) -1.60439 (1,10,8) -3.97584 (1,11,7) -1.48300
(1,10,8): (1,9,8) -5.38815 (1,10,7) 3.97584 (1,10,9) -0.690869 (1,11,8) 0.941151
(1,10,9): (1,9,9) -1.94310 (1,10,8) 0.690869 (1,10,10) -9.766621E-02 (1,11,9) 0.735834
(1,10,10): (1,9,10) -0.868137 (1,10,9) 9.766621E-02 (1,11,10) 0.449832
(1,11,1): (1,10,1) -0.168492 (1,11,2) 0.213069 (1,12,1) -7.408788E-03
(1,11,2): (1,10,2) -0.337193 (1,11,1) -0.213069 (1,11,3) 0.496327 (1,12,2) -1.188851E-02
(1,11,3): (1,10,3) -0.696067 (1,11,2) -0.496327 (1,11,4) 0.952040 (1,12,3) -6.521583E-02
(1,11,4): (1,10,4) -0.928313 (1,11,3) -0.952040 (1,11,5) 1.53054 (1,12,4) -0.336650
(1,11,5): (1,10,5) 1.48658 (1,11,4) -1.53054 (1,11,6) 6.112556E-02 (1,12,5) -1.11705
(1,11,6): (1,10,6) -0.167411 (1,11,5) -6.112556E-02 (1,11,7) -4.759520E-02 (1,12,6) -0.970257
(1,11,7): (1,10,7) 1.48300 (1,11,6) 4.759520E-02 (1,11,8) -1.50469 (1,12,7) -1.11784
(1,11,8): (1,10,8) -0.941151 (1,11,7) 1.50469 (1,11,9) -0.896099 (1,12,8) -0.338147
(1,11,9): (1,10,9) -0.735834 (1,11,8) 0.896099 (1,11,10) -0.382687 (1,12,9) -6.713681E-02
(1,11,10): (1,10,10) -0.449832 (1,11,9) 0.382687 (1,12,10) -1.330974E-02
(1,12,1): (1,11,1) 7.408788E-03 (1,12,2) 0.208580 (1,13,1) -9.634812E-02
(1,12,2): (1,11,2) 1.188851E-02 (1,12,1) -0.208580 (1,12,3) 0.442775 (1,13,2) -0.161473
(1,12,3): (1,11,3) 6.521583E-02 (1,12,2) -0.442775 (1,12,4) 0.679004 (1,13,3) -0.315171
(1,12,4): (1,11,4) 0.336650 (1,12,3) -0.679004 (1,12,5) 0.747143 (1,13,4) -0.593222
(1,12,5): (1,11,5) 1.11705 (1,12,4) -0.747143 (1,12,6) 0.206670 (1,13,5) -0.957321
(1,12,6): (1,11,6) 0.970257 (1,12,5) -0.206670 (1,12,7) -0.193899 (1,13,6) -1.02490
(1,12,7): (1,11,7) 1.11784 (1,12,6) 0.193899 (1,12,8) -0.722202 (1,13,7) -0.960646
(1,12,8): (1,11,8) 0.338147 (1,12,7) 0.722202 (1,12,9) -0.623640 (1,13,8) -0.603002
(1,12,9): (1,11,9) 6.713681E-02 (1,12,8) 0.623640 (1,12,10) -0.328694 (1,13,9) -0.339681
(1,12,10): (1,11,10) 1.330974E-02 (1,12,9) 0.328694 (1,13,10) -0.218109
(1,13,1): (1,12,1) 9.634812E-02 (1,13,2) 0.143425 (1,14,1) -9.724886E-02
(1,13,2): (1,12,2) 0.161473 (1,13,1) -0.143425 (1,13,3) 0.288885 (1,14,2) -0.156733
(1,13,3): (1,12,3) 0.315171 (1,13,2) -0.288885 (1,13,4) 0.400724 (1,14,3) -0.282043
(1,13,4): (1,12,4) 0.593222 (1,13,3) -0.400724 (1,13,5) 0.383766 (1,14,4) -0.467879
(1,13,5): (1,12,5) 0.957321 (1,13,4) -0.383766 (1,13,6) 0.139600 (1,14,5) -0.658150
(1,13,6): (1,12,6) 1.02490 (1,13,5) -0.139600 (1,13,7) -0.130138 (1,14,6) -0.721954
(1,13,7): (1,12,7) 0.960646 (1,13,6) 0.130138 (1,13,8) -0.365360 (1,14,7) -0.661516
(1,13,8): (1,12,8) 0.603002 (1,13,7) 0.365360 (1,13,9) -0.360267 (1,14,8) -0.477909
(1,13,9): (1,12,9) 0.339681 (1,13,8) 0.360267 (1,13,10) -0.207135 (1,14,9) -0.307185
(1,13,10): (1,12,10) 0.218109 (1,13,9) 0.207135 (1,14,10) -0.213777
(1,14,1): (1,13,1) 9.724886E-02 (1,14,2) 8.394940E-02 (1,15,1) -5.467169E-02
(1,14,2): (1,13,2) 0.156733 (1,14,1) -8.394940E-02 (1,14,3) 0.163566 (1,15,2) -8.606292E-02
(1,14,3): (1,13,3) 0.282043 (1,14,2) -0.163566 (1,14,4) 0.215010 (1,15,3) -0.149396
(1,14,4): (1,13,4) 0.467879 (1,14,3) -0.215010 (1,14,5) 0.193997 (1,15,4) -0.236751
(1,14,5): (1,13,5) 0.658150 (1,14,4) -0.193997 (1,14,6) 7.615117E-02 (1,15,5) -0.319042
(1,14,6): (1,13,6) 0.721954 (1,14,5) -7.615117E-02 (1,14,7) -7.004207E-02 (1,15,6) -0.350346
(1,14,7): (1,13,7) 0.661516 (1,14,6) 7.004207E-02 (1,14,8) -0.182276 (1,15,7) -0.320970
(1,14,8): (1,13,8) 0.477909 (1,14,7) 0.182276 (1,14,9) -0.189739 (1,15,8) -0.242486
(1,14,9): (1,13,9) 0.307185 (1,14,8) 0.189739 (1,14,10) -0.113819 (1,15,9) -0.163654
(1,14,10): (1,13,10) 0.213777 (1,14,9) 0.113819 (1,15,10) -0.117886
(1,15,1): (1,14,1) 5.467169E-02 (1,15,2) 5.255883E-02
(1,15,2): (1,14,2) 8.606292E-02 (1,15,1) -5.255883E-02 (1,15,3) 0.100224
(1,15,3): (1,14,3) 0.149396 (1,15,2) -0.100224 (1,15,4) 0.127674
(1,15,4): (1,14,4) 0.236751 (1,15,3) -0.127674 (1,15,5) 0.111807
(1,15,5): (1,14,5) 0.319042 (1,15,4) -0.111807 (1,15,6) 4.493069E-02
(1,15,6): (1,14,6) 0.350346 (1,15,5) -4.493069E-02 (1,15,7) -4.074627E-02
(1,15,7): (1,14,7) 0.320970 (1,15,6) 4.074627E-02 (1,15,8) -0.103898
(1,15,8): (1,14,8) 0.242486 (1,15,7) 0.103898 (1,15,9) -0.110948
(1,15,9): (1,14,9) 0.163654 (1,15,8) 0.110948 (1,15,10) -6.807353E-02
(1,15,10): (1,14,10) 0.117886 (1,15,9) 6.807353E-02

 WEL PACKAGE (WEL-1) FLOW RATES   PERIOD      2   STEP       68
 ----------------------------------------------------------------------------------------
   NUMBER   CELLID                    RATE       NAME                                    
 ----------------------------------------------------------------------------------------
     1      (1,8,6)              -203.42210      WEL                                     
 ----------------------------------------------------------------------------------------




 API PACKAGE (MAR) FLOW RATES   PERIOD      2   STEP       68
 -----------------------------------------------
   NUMBER   CELLID                    RATE      
 -----------------------------------------------
     1      (1,6,5)               46.666667     
     2      (1,6,6)               46.666667     
     3      (1,6,7)               46.666667     
     4      (1,10,5)              21.140699     
     5      (1,10,6)              21.140699     
     6      (1,10,7)              21.140699     
 -----------------------------------------------



1
  HEAD IN LAYER   1 AT END OF TIME STEP  68 IN STRESS PERIOD    2
  ---------------------------------------------------------------------------

            1           2           3           4           5           6           7           8           9          10
 ........................................................................................................................
   1   1.3525E-02  2.0665E-02  3.4640E-02  5.3085E-02  6.9807E-02  7.6628E-02  7.0305E-02  5.4543E-02  3.8191E-02  2.8386E-02
   2   2.1275E-02  3.3586E-02  5.8499E-02  9.2979E-02  0.1258      0.1390      0.1265      9.5197E-02  6.4021E-02  4.5950E-02
   3   3.6174E-02  5.9526E-02  0.1091      0.1827      0.2583      0.2877      0.2595      0.1863      0.1183      8.0939E-02
   4   5.4063E-02  9.3376E-02  0.1827      0.3307      0.5053      0.5651      0.5070      0.3358      0.1961      0.1259    
   5   6.3698E-02  0.1162      0.2487      0.5137      0.9267       1.022      0.9286      0.5194      0.2642      0.1549    
   6   4.9413E-02  9.2106E-02  0.2199      0.5842       1.670       1.686       1.672      0.5888      0.2318      0.1218    
   7   9.5607E-03 -5.7529E-04 -4.0162E-02 -0.1601     -0.4961      -1.594     -0.4953     -0.1581     -3.6753E-02  2.2214E-03
   8  -1.9260E-02 -6.9977E-02 -0.2433     -0.7727      -2.431      -8.648      -2.431     -0.7725     -0.2462     -8.7050E-02
   9  -9.2925E-03 -4.2953E-02 -0.1494     -0.4220      -1.031      -2.235      -1.031     -0.4213     -0.1502     -5.3007E-02
  10   1.9558E-02  2.4005E-02  3.7768E-02  0.1090      0.4896      0.3376      0.4906      0.1116      4.3241E-02  3.3517E-02
  11   3.6347E-02  5.7532E-02  0.1066      0.2000      0.3479      0.3538      0.3492      0.2038      0.1160      7.8151E-02
  12   3.5608E-02  5.6350E-02  0.1002      0.1670      0.2399      0.2601      0.2412      0.1707      0.1093      7.6831E-02
  13   2.6008E-02  4.0293E-02  6.8983E-02  0.1086      0.1464      0.1602      0.1474      0.1114      7.5744E-02  5.5186E-02
  14   1.6308E-02  2.4682E-02  4.0972E-02  6.2340E-02  8.1583E-02  8.9131E-02  8.2188E-02  6.4109E-02  4.5256E-02  3.3926E-02
  15   1.0850E-02  1.6097E-02  2.6094E-02  3.8812E-02  4.9937E-02  5.4405E-02  5.0353E-02  4.0015E-02  2.8965E-02  2.2177E-02

 HEAD WILL BE SAVED ON UNIT 1043 AT END OF TIME STEP   68, STRESS PERIOD    2


  VOLUME BUDGET FOR ENTIRE MODEL AT END OF TIME STEP   68, STRESS PERIOD   2
  ---------------------------------------------------------------------------------------------------

     CUMULATIVE VOLUME      L**3       RATES FOR THIS TIME STEP      L**3/T          PACKAGE NAME    
     ------------------                 ------------------------                     ----------------

           IN:                                      IN:
           ---                                      ---
              STO-SS =          24.1775                STO-SS =       1.5959E-02     STORAGE                          
              STO-SY =       57619.8577                STO-SY =          33.0106     STORAGE                          
                 WEL =           0.0000                   WEL =           0.0000     WEL-1                            
                 API =      155645.7237                   API =         203.4221     MAR                              
                 CHD =       2.8247E-08                   CHD =           0.0000     CHD_0                            

            TOTAL IN =      213289.7590              TOTAL IN =         236.4487

          OUT:                                     OUT:
          ----                                     ----
              STO-SS =          29.8933                STO-SS =       1.6923E-02     STORAGE                          
              STO-SY =       57614.1419                STO-SY =          33.0097     STORAGE                          
                 WEL =      155645.7237                   WEL =         203.4221     WEL-1                            
                 API =           0.0000                   API =           0.0000     MAR                              
                 CHD =       3.0388E-08                   CHD =           0.0000     CHD_0                            

           TOTAL OUT =      213289.7590             TOTAL OUT =         236.4487

            IN - OUT =       1.9212E-06              IN - OUT =       9.5422E-09

 PERCENT DISCREPANCY =           0.00     PERCENT DISCREPANCY =           0.00




         TIME SUMMARY AT END OF TIME STEP   68 IN STRESS PERIOD    2
                    SECONDS     MINUTES      HOURS       DAYS        YEARS
                    -----------------------------------------------------------
   TIME STEP LENGTH 8.64000E+05  14400.      240.00      10.000     2.73785E-02
 STRESS PERIOD TIME 5.87520E+07 9.79200E+05  16320.      680.00      1.8617    
         TOTAL TIME 5.88384E+07 9.80640E+05  16344.      681.00      1.8645    


end timestep


start timestep kper="2" kstp="69" mode="normal"

 UBDSV1 SAVING           STO-SS ON UNIT   1042 AT TIME STEP     69, STRESS PERIOD      2
 UBDSV1 SAVING           STO-SY ON UNIT   1042 AT TIME STEP     69, STRESS PERIOD      2
 UBDSV1 SAVING     FLOW-JA-FACE ON UNIT   1042 AT TIME STEP     69, STRESS PERIOD      2
 UBDSV06 SAVING       DATA-SPDIS IN MODEL GWF              PACKAGE NPF             CONNECTED TO MODEL GWF              PACKAGE NPF              ON UNIT   1042 AT TIME STEP     69, STRESS PERIOD      2
 UBDSV06 SAVING              WEL IN MODEL GWF              PACKAGE GWF             CONNECTED TO MODEL GWF              PACKAGE WEL-1            ON UNIT   1042 AT TIME STEP     69, STRESS PERIOD      2
 UBDSV06 SAVING              API IN MODEL GWF              PACKAGE GWF             CONNECTED TO MODEL GWF              PACKAGE MAR              ON UNIT   1042 AT TIME STEP     69, STRESS PERIOD      2
 UBDSV06 SAVING              CHD IN MODEL GWF              PACKAGE GWF             CONNECTED TO MODEL GWF              PACKAGE CHD_0            ON UNIT   1042 AT TIME STEP     69, STRESS PERIOD      2

    CALCULATED INTERCELL FLOW FOR PERIOD 2 STEP 69
(1,1,1): (1,1,2) 7.401843E-02 (1,2,1) 7.996694E-02
(1,1,2): (1,1,1) -7.401843E-02 (1,1,3) 0.144612 (1,2,2) 0.132616
(1,1,3): (1,1,2) -0.144612 (1,1,4) 0.190488 (1,2,3) 0.244115
(1,1,4): (1,1,3) -0.190488 (1,1,5) 0.172501 (1,2,4) 0.408070
(1,1,5): (1,1,4) -0.172501 (1,1,6) 7.040161E-02 (1,2,5) 0.572986
(1,1,6): (1,1,5) -7.040161E-02 (1,1,7) -6.500173E-02 (1,2,6) 0.639200
(1,1,7): (1,1,6) 6.500173E-02 (1,1,8) -0.162212 (1,2,7) 0.575666
(1,1,8): (1,1,7) 0.162212 (1,1,9) -0.168364 (1,2,8) 0.416138
(1,1,9): (1,1,8) 0.168364 (1,1,10) -0.100973 (1,2,9) 0.264724
(1,1,10): (1,1,9) 0.100973 (1,2,10) 0.180581
(1,2,1): (1,1,1) -7.996694E-02 (1,2,2) 0.126665 (1,3,1) 0.152979
(1,2,2): (1,1,2) -0.132616 (1,2,1) -0.126665 (1,2,3) 0.256124 (1,3,2) 0.265305
(1,2,3): (1,1,3) -0.244115 (1,2,2) -0.256124 (1,2,4) 0.354357 (1,3,3) 0.517168
(1,2,4): (1,1,4) -0.408070 (1,2,3) -0.354357 (1,2,5) 0.337040 (1,3,4) 0.920874
(1,2,5): (1,1,5) -0.572986 (1,2,4) -0.337040 (1,2,6) 0.136296 (1,3,5) 1.36817
(1,2,6): (1,1,6) -0.639200 (1,2,5) -0.136296 (1,2,7) -0.128224 (1,3,6) 1.53844
(1,2,7): (1,1,7) -0.575666 (1,2,6) 0.128224 (1,2,8) -0.321347 (1,3,7) 1.37311
(1,2,8): (1,1,8) -0.416138 (1,2,7) 0.321347 (1,2,9) -0.319636 (1,3,8) 0.935809
(1,2,9): (1,1,9) -0.264724 (1,2,8) 0.319636 (1,2,10) -0.185050 (1,3,9) 0.556034
(1,2,10): (1,1,10) -0.180581 (1,2,9) 0.185050 (1,3,10) 0.358787
(1,3,1): (1,2,1) -0.152979 (1,3,2) 0.238962 (1,4,1) 0.182224
(1,3,2): (1,2,2) -0.265305 (1,3,1) -0.238962 (1,3,3) 0.507965 (1,4,2) 0.344322
(1,3,3): (1,2,3) -0.517168 (1,3,2) -0.507965 (1,3,4) 0.757433 (1,4,3) 0.752524
(1,3,4): (1,2,4) -0.920874 (1,3,3) -0.757433 (1,3,5) 0.781884 (1,4,4) 1.53235
(1,3,5): (1,2,5) -1.36817 (1,3,4) -0.781884 (1,3,6) 0.304628 (1,4,5) 2.59790
(1,3,6): (1,2,6) -1.53844 (1,3,5) -0.304628 (1,3,7) -0.291655 (1,4,6) 2.93488
(1,3,7): (1,2,7) -1.37311 (1,3,6) 0.291655 (1,3,8) -0.756123 (1,4,7) 2.60345
(1,3,8): (1,2,8) -0.935809 (1,3,7) 0.756123 (1,3,9) -0.698552 (1,4,8) 1.54908
(1,3,9): (1,2,9) -0.556034 (1,3,8) 0.698552 (1,3,10) -0.381964 (1,4,9) 0.797363
(1,3,10): (1,2,10) -0.358787 (1,3,9) 0.381964 (1,4,10) 0.458872
(1,4,1): (1,3,1) -0.182224 (1,4,2) 0.401150 (1,5,1) 9.566715E-02
(1,4,2): (1,3,2) -0.344322 (1,4,1) -0.401150 (1,4,3) 0.916809 (1,5,2) 0.227951
(1,4,3): (1,3,3) -0.752524 (1,4,2) -0.916809 (1,4,4) 1.53730 (1,5,3) 0.671894
(1,4,4): (1,3,4) -1.53235 (1,4,3) -1.53730 (1,4,5) 1.84030 (1,5,4) 1.91615
(1,4,5): (1,3,5) -2.59790 (1,4,4) -1.84030 (1,4,6) 0.634973 (1,5,5) 4.59540
(1,4,6): (1,3,6) -2.93488 (1,4,5) -0.634973 (1,4,7) -0.616505 (1,5,6) 5.02406
(1,4,7): (1,3,7) -2.60345 (1,4,6) 0.616505 (1,4,8) -1.80305 (1,5,7) 4.59814
(1,4,8): (1,3,8) -1.54908 (1,4,7) 1.80305 (1,4,9) -1.44958 (1,5,8) 1.92365
(1,4,9): (1,3,9) -0.797363 (1,4,8) 1.44958 (1,4,10) -0.720207 (1,5,9) 0.693079
(1,4,10): (1,3,10) -0.458872 (1,4,9) 0.720207 (1,5,10) 0.291208
(1,5,1): (1,4,1) -9.566715E-02 (1,5,2) 0.533828 (1,6,1) -0.149633
(1,5,2): (1,4,2) -0.227951 (1,5,1) -0.533828 (1,5,3) 1.36365 (1,6,2) -0.251922
(1,5,3): (1,4,3) -0.671894 (1,5,2) -1.36365 (1,5,4) 2.79127 (1,6,3) -0.309040
(1,5,4): (1,4,4) -1.91615 (1,5,3) -2.79127 (1,5,5) 4.51786 (1,6,4) 0.728694
(1,5,5): (1,4,5) -4.59540 (1,5,4) -4.51786 (1,5,6) 1.05093 (1,6,5) 8.65702
(1,5,6): (1,4,6) -5.02406 (1,5,5) -1.05093 (1,5,7) -1.02972 (1,6,6) 7.73517
(1,5,7): (1,4,7) -4.59814 (1,5,6) 1.02972 (1,5,8) -4.47486 (1,6,7) 8.65329
(1,5,8): (1,4,8) -1.92365 (1,5,7) 4.47486 (1,5,9) -2.68853 (1,6,8) 0.715371
(1,5,9): (1,4,9) -0.693079 (1,5,8) 2.68853 (1,5,10) -1.12371 (1,6,9) -0.347047
(1,5,10): (1,4,10) -0.291208 (1,5,9) 1.12371 (1,6,10) -0.348724
(1,6,1): (1,5,1) 0.149633 (1,6,2) 0.431260 (1,7,1) -0.408717
(1,6,2): (1,5,2) 0.251922 (1,6,1) -0.431260 (1,6,3) 1.30600 (1,7,2) -0.947171
(1,6,3): (1,5,3) 0.309040 (1,6,2) -1.30600 (1,6,4) 3.85735 (1,7,3) -2.67531
(1,6,4): (1,5,4) -0.728694 (1,6,3) -3.85735 (1,6,5) 12.6780 (1,7,4) -7.90274
(1,6,5): (1,5,5) -8.65702 (1,6,4) -12.6780 (1,6,6) 0.180703 (1,7,5) -25.3116
(1,6,6): (1,5,6) -7.73517 (1,6,5) -0.180703 (1,6,7) -0.163071 (1,7,6) -38.3478
(1,6,7): (1,5,7) -8.65329 (1,6,6) 0.163071 (1,6,8) -12.6431 (1,7,7) -25.3219
(1,6,8): (1,5,8) -0.715371 (1,6,7) 12.6431 (1,6,9) -3.77913 (1,7,8) -7.93303
(1,6,9): (1,5,9) 0.347047 (1,6,8) 3.77913 (1,6,10) -1.12542 (1,7,9) -2.76803
(1,6,10): (1,5,10) 0.348724 (1,6,9) 1.12542 (1,7,10) -1.22628
(1,7,1): (1,6,1) 0.408717 (1,7,2) -0.104584 (1,8,1) -0.294935
(1,7,2): (1,6,2) 0.947171 (1,7,1) 0.104584 (1,7,3) -0.401258 (1,8,2) -0.703815
(1,7,3): (1,6,3) 2.67531 (1,7,2) 0.401258 (1,7,4) -1.19929 (1,8,3) -2.03908
(1,7,4): (1,6,4) 7.90274 (1,7,3) 1.19929 (1,7,5) -3.30434 (1,8,4) -6.05013
(1,7,5): (1,6,5) 25.3116 (1,7,4) 3.30434 (1,7,6) -10.4256 (1,8,5) -18.4145
(1,7,6): (1,6,6) 38.3478 (1,7,5) 10.4256 (1,7,7) 10.4353 (1,8,6) -59.2955
(1,7,7): (1,6,7) 25.3219 (1,7,6) -10.4353 (1,7,8) 3.31686 (1,8,7) -18.4214
(1,7,8): (1,6,8) 7.93303 (1,7,7) -3.31686 (1,7,9) 1.21296 (1,8,8) -6.07116
(1,7,9): (1,6,9) 2.76803 (1,7,8) -1.21296 (1,7,10) 0.393901 (1,8,9) -2.10470
(1,7,10): (1,6,10) 1.22628 (1,7,9) -0.393901 (1,8,10) -0.906452
(1,8,1): (1,7,1) 0.294935 (1,8,2) -0.512685 (1,9,1) 9.804640E-02
(1,8,2): (1,7,2) 0.703815 (1,8,1) 0.512685 (1,8,3) -1.73246 (1,9,2) 0.265466
(1,8,3): (1,7,3) 2.03908 (1,8,2) 1.73246 (1,8,4) -5.17575 (1,9,3) 0.915810
(1,8,4): (1,7,4) 6.05013 (1,8,3) 5.17575 (1,8,5) -15.2995 (1,9,4) 3.33786
(1,8,5): (1,7,5) 18.4145 (1,8,4) 15.2995 (1,8,6) -47.0053 (1,9,5) 12.5103
(1,8,6): (1,7,6) 59.2955 (1,8,5) 47.0053 (1,8,7) 47.0103 (1,9,6) 49.6919
(1,8,7): (1,7,7) 18.4214 (1,8,6) -47.0103 (1,8,8) 15.2973 (1,9,7) 12.5124
(1,8,8): (1,7,8) 6.07116 (1,8,7) -15.2973 (1,8,9) 5.14310 (1,9,8) 3.34392
(1,8,9): (1,7,9) 2.10470 (1,8,8) -5.14310 (1,8,10) 1.58597 (1,9,9) 0.936057
(1,8,10): (1,7,10) 0.906452 (1,8,9) -1.58597 (1,9,10) 0.333859
(1,9,1): (1,8,1) -9.804640E-02 (1,9,2) -0.344850 (1,10,1) 0.292488
(1,9,2): (1,8,2) -0.265466 (1,9,1) 0.344850 (1,9,3) -1.07671 (1,10,2) 0.674968
(1,9,3): (1,8,3) -0.915810 (1,9,2) 1.07671 (1,9,4) -2.70718 (1,10,3) 1.88140
(1,9,4): (1,8,4) -3.33786 (1,9,3) 2.70718 (1,9,5) -5.85195 (1,10,4) 5.36330
(1,9,5): (1,8,5) -12.5103 (1,9,4) 5.85195 (1,9,6) -10.7871 (1,10,5) 15.9232
(1,9,6): (1,8,6) -49.6919 (1,9,5) 10.7871 (1,9,7) 10.7923 (1,10,6) 26.5432
(1,9,7): (1,8,7) -12.5124 (1,9,6) -10.7923 (1,9,8) 5.85427 (1,10,7) 15.9295
(1,9,8): (1,8,8) -3.34392 (1,9,7) -5.85427 (1,9,9) 2.68995 (1,10,8) 5.38396
(1,9,9): (1,8,9) -0.936057 (1,9,8) -2.68995 (1,9,10) 0.979779 (1,10,9) 1.94676
(1,9,10): (1,8,10) -0.333859 (1,9,9) -0.979779 (1,10,10) 0.873583
(1,10,1): (1,9,1) -0.292488 (1,10,2) 3.639140E-02 (1,11,1) 0.174136
(1,10,2): (1,9,2) -0.674968 (1,10,1) -3.639140E-02 (1,10,3) 0.120332 (1,11,2) 0.345800
(1,10,3): (1,9,3) -1.88140 (1,10,2) -0.120332 (1,10,4) 0.691522 (1,11,3) 0.710459
(1,10,4): (1,9,4) -5.36330 (1,10,3) -0.691522 (1,10,5) 3.95264 (1,11,4) 0.951621
(1,10,5): (1,9,5) -15.9232 (1,10,4) -3.95264 (1,10,6) -1.60298 (1,11,5) -1.44550
(1,10,6): (1,9,6) -26.5432 (1,10,5) 1.60298 (1,10,7) 1.61332 (1,11,6) 0.209201
(1,10,7): (1,9,7) -15.9295 (1,10,6) -1.61332 (1,10,8) -3.93576 (1,11,7) -1.44172
(1,10,8): (1,9,8) -5.38396 (1,10,7) 3.93576 (1,10,9) -0.663607 (1,11,8) 0.965046
(1,10,9): (1,9,9) -1.94676 (1,10,8) 0.663607 (1,10,10) -8.327959E-02 (1,11,9) 0.751704
(1,10,10): (1,9,10) -0.873583 (1,10,9) 8.327959E-02 (1,11,10) 0.461705
(1,11,1): (1,10,1) -0.174136 (1,11,2) 0.207822 (1,12,1) -3.179496E-03
(1,11,2): (1,10,2) -0.345800 (1,11,1) -0.207822 (1,11,3) 0.484186 (1,12,2) -4.299669E-03
(1,11,3): (1,10,3) -0.710459 (1,11,2) -0.484186 (1,11,4) 0.932642 (1,12,3) -5.063024E-02
(1,11,4): (1,10,4) -0.951621 (1,11,3) -0.932642 (1,11,5) 1.50891 (1,12,4) -0.311677
(1,11,5): (1,10,5) 1.44550 (1,11,4) -1.50891 (1,11,6) 5.371410E-02 (1,12,5) -1.08024
(1,11,6): (1,10,6) -0.209201 (1,11,5) -5.371410E-02 (1,11,7) -3.978763E-02 (1,12,6) -0.929859
(1,11,7): (1,10,7) 1.44172 (1,11,6) 3.978763E-02 (1,11,8) -1.48270 (1,12,7) -1.08093
(1,11,8): (1,10,8) -0.965046 (1,11,7) 1.48270 (1,11,9) -0.876774 (1,12,8) -0.312823
(1,11,9): (1,10,9) -0.751704 (1,11,8) 0.876774 (1,11,10) -0.372209 (1,12,9) -5.148946E-02
(1,11,10): (1,10,10) -0.461705 (1,11,9) 0.372209 (1,12,10) -2.960354E-03
(1,12,1): (1,11,1) 3.179496E-03 (1,12,2) 0.206699 (1,13,1) -9.504962E-02
(1,12,2): (1,11,2) 4.299669E-03 (1,12,1) -0.206699 (1,12,3) 0.437659 (1,13,2) -0.158013
(1,12,3): (1,11,3) 5.063024E-02 (1,12,2) -0.437659 (1,12,4) 0.670039 (1,13,3) -0.307018
(1,12,4): (1,11,4) 0.311677 (1,12,3) -0.670039 (1,12,5) 0.737279 (1,13,4) -0.578076
(1,12,5): (1,11,5) 1.08024 (1,12,4) -0.737279 (1,12,6) 0.202865 (1,13,5) -0.935025
(1,12,6): (1,11,6) 0.929859 (1,12,5) -0.202865 (1,12,7) -0.189604 (1,13,6) -0.999891
(1,12,7): (1,11,7) 1.08093 (1,12,6) 0.189604 (1,12,8) -0.711720 (1,13,7) -0.938383
(1,12,8): (1,11,8) 0.312823 (1,12,7) 0.711720 (1,12,9) -0.614027 (1,13,8) -0.587852
(1,12,9): (1,11,9) 5.148946E-02 (1,12,8) 0.614027 (1,12,10) -0.323528 (1,13,9) -0.331251
(1,12,10): (1,11,10) 2.960354E-03 (1,12,9) 0.323528 (1,13,10) -0.213461
(1,13,1): (1,12,1) 9.504962E-02 (1,13,2) 0.143706 (1,14,1) -9.792707E-02
(1,13,2): (1,12,2) 0.158013 (1,13,1) -0.143706 (1,13,3) 0.288464 (1,14,2) -0.156562
(1,13,3): (1,12,3) 0.307018 (1,13,2) -0.288464 (1,13,4) 0.398742 (1,14,3) -0.279856
(1,13,4): (1,12,4) 0.578076 (1,13,3) -0.398742 (1,13,5) 0.380995 (1,14,4) -0.462500
(1,13,5): (1,12,5) 0.935025 (1,13,4) -0.380995 (1,13,6) 0.138478 (1,14,5) -0.649491
(1,13,6): (1,12,6) 0.999891 (1,13,5) -0.138478 (1,13,7) -0.128557 (1,14,6) -0.711973
(1,13,7): (1,12,7) 0.938383 (1,13,6) 0.128557 (1,13,8) -0.361939 (1,14,7) -0.652950
(1,13,8): (1,12,8) 0.587852 (1,13,7) 0.361939 (1,13,9) -0.357361 (1,14,8) -0.472720
(1,13,9): (1,12,9) 0.331251 (1,13,8) 0.357361 (1,13,10) -0.205746 (1,14,9) -0.305234
(1,13,10): (1,12,10) 0.213461 (1,13,9) 0.205746 (1,14,10) -0.213631
(1,14,1): (1,13,1) 9.792707E-02 (1,14,2) 8.507861E-02 (1,15,1) -5.557611E-02
(1,14,2): (1,13,2) 0.156562 (1,14,1) -8.507861E-02 (1,14,3) 0.165159 (1,15,2) -8.679935E-02
(1,14,3): (1,13,3) 0.279856 (1,14,2) -0.165159 (1,14,4) 0.216211 (1,15,3) -0.149620
(1,14,4): (1,13,4) 0.462500 (1,14,3) -0.216211 (1,14,5) 0.194487 (1,15,4) -0.236031
(1,14,5): (1,13,5) 0.649491 (1,14,4) -0.194487 (1,14,6) 7.633842E-02 (1,15,5) -0.317290
(1,14,6): (1,13,6) 0.711973 (1,14,5) -7.633842E-02 (1,14,7) -6.986273E-02 (1,15,6) -0.348168
(1,14,7): (1,13,7) 0.652950 (1,14,6) 6.986273E-02 (1,14,8) -0.182214 (1,15,7) -0.319288
(1,14,8): (1,13,8) 0.472720 (1,14,7) 0.182214 (1,14,9) -0.190063 (1,15,8) -0.241928
(1,14,9): (1,13,9) 0.305234 (1,14,8) 0.190063 (1,14,10) -0.114233 (1,15,9) -0.164149
(1,14,10): (1,13,10) 0.213631 (1,14,9) 0.114233 (1,15,10) -0.118948
(1,15,1): (1,14,1) 5.557611E-02 (1,15,2) 5.385592E-02
(1,15,2): (1,14,2) 8.679935E-02 (1,15,1) -5.385592E-02 (1,15,3) 0.102329
(1,15,3): (1,14,3) 0.149620 (1,15,2) -0.102329 (1,15,4) 0.129817
(1,15,4): (1,14,4) 0.236031 (1,15,3) -0.129817 (1,15,5) 0.113326
(1,15,5): (1,14,5) 0.317290 (1,15,4) -0.113326 (1,15,6) 4.554243E-02
(1,15,6): (1,14,6) 0.348168 (1,15,5) -4.554243E-02 (1,15,7) -4.106171E-02
(1,15,7): (1,14,7) 0.319288 (1,15,6) 4.106171E-02 (1,15,8) -0.104958
(1,15,8): (1,14,8) 0.241928 (1,15,7) 0.104958 (1,15,9) -0.112323
(1,15,9): (1,14,9) 0.164149 (1,15,8) 0.112323 (1,15,10) -6.905381E-02
(1,15,10): (1,14,10) 0.118948 (1,15,9) 6.905381E-02

 WEL PACKAGE (WEL-1) FLOW RATES   PERIOD      2   STEP       69
 ----------------------------------------------------------------------------------------
   NUMBER   CELLID                    RATE       NAME                                    
 ----------------------------------------------------------------------------------------
     1      (1,8,6)              -203.22510      WEL                                     
 ----------------------------------------------------------------------------------------




 API PACKAGE (MAR) FLOW RATES   PERIOD      2   STEP       69
 -----------------------------------------------
   NUMBER   CELLID                    RATE      
 -----------------------------------------------
     1      (1,6,5)               46.666667     
     2      (1,6,6)               46.666667     
     3      (1,6,7)               46.666667     
     4      (1,10,5)              21.075035     
     5      (1,10,6)              21.075035     
     6      (1,10,7)              21.075035     
 -----------------------------------------------



1
  HEAD IN LAYER   1 AT END OF TIME STEP  69 IN STRESS PERIOD    2
  ---------------------------------------------------------------------------

            1           2           3           4           5           6           7           8           9          10
 ........................................................................................................................
   1   1.4294E-02  2.1680E-02  3.6089E-02  5.5034E-02  7.2161E-02  7.9145E-02  7.2696E-02  5.6592E-02  3.9851E-02  2.9793E-02
   2   2.2273E-02  3.4896E-02  6.0355E-02  9.5455E-02  0.1287      0.1422      0.1295      9.7803E-02  6.6149E-02  4.7766E-02
   3   3.7514E-02  6.1265E-02  0.1115      0.1859      0.2621      0.2917      0.2633      0.1896      0.1211      8.3348E-02
   4   5.5636E-02  9.5372E-02  0.1854      0.3341      0.5093      0.5693      0.5110      0.3395      0.1993      0.1287    
   5   6.5140E-02  0.1179      0.2509      0.5163      0.9297       1.025      0.9316      0.5223      0.2668      0.1573    
   6   5.0274E-02  9.3003E-02  0.2208      0.5852       1.671       1.687       1.673      0.5898      0.2330      0.1230    
   7   9.6066E-03 -8.4174E-04 -4.0971E-02 -0.1614     -0.4972      -1.594     -0.4963     -0.1593     -3.7532E-02  1.8512E-03
   8  -1.9859E-02 -7.1229E-02 -0.2457     -0.7763      -2.435      -8.649      -2.435     -0.7762     -0.2488     -8.8777E-02
   9  -1.0044E-02 -4.4564E-02 -0.1527     -0.4276      -1.039      -2.243      -1.038     -0.4269     -0.1537     -5.5206E-02
  10   1.9149E-02  2.2780E-02  3.4771E-02  0.1032      0.4804      0.3274      0.4813      0.1058      4.0169E-02  3.1875E-02
  11   3.6499E-02  5.7163E-02  0.1051      0.1965      0.3424      0.3476      0.3438      0.2004      0.1145      7.7689E-02
  12   3.6182E-02  5.6736E-02  0.1001      0.1660      0.2380      0.2578      0.2393      0.1698      0.1094      7.7396E-02
  13   2.6712E-02  4.1023E-02  6.9670E-02  0.1091      0.1467      0.1603      0.1476      0.1120      7.6632E-02  5.6213E-02
  14   1.6945E-02  2.5431E-02  4.1878E-02  6.3363E-02  8.2652E-02  9.0218E-02  8.3294E-02  6.5223E-02  4.6340E-02  3.4970E-02
  15   1.1397E-02  1.6773E-02  2.6979E-02  3.9909E-02  5.1184E-02  5.5713E-02  5.1629E-02  4.1187E-02  3.0001E-02  2.3116E-02

 HEAD WILL BE SAVED ON UNIT 1043 AT END OF TIME STEP   69, STRESS PERIOD    2


  VOLUME BUDGET FOR ENTIRE MODEL AT END OF TIME STEP   69, STRESS PERIOD   2
  ---------------------------------------------------------------------------------------------------

     CUMULATIVE VOLUME      L**3       RATES FOR THIS TIME STEP      L**3/T          PACKAGE NAME    
     ------------------                 ------------------------                     ----------------

           IN:                                      IN:
           ---                                      ---
              STO-SS =          24.3354                STO-SS =       1.5782E-02     STORAGE                          
              STO-SY =       57946.2699                STO-SY =          32.6412     STORAGE                          
                 WEL =           0.0000                   WEL =           0.0000     WEL-1                            
                 API =      157677.9748                   API =         203.2251     MAR                              
                 CHD =       2.8247E-08                   CHD =           0.0000     CHD_0                            

            TOTAL IN =      215648.5800              TOTAL IN =         235.8821

          OUT:                                     OUT:
          ----                                     ----
              STO-SS =          30.0607                STO-SS =       1.6734E-02     STORAGE                          
              STO-SY =       57940.5446                STO-SY =          32.6403     STORAGE                          
                 WEL =      157677.9747                   WEL =         203.2251     WEL-1                            
                 API =           0.0000                   API =           0.0000     MAR                              
                 CHD =       3.0388E-08                   CHD =           0.0000     CHD_0                            

           TOTAL OUT =      215648.5800             TOTAL OUT =         235.8821

            IN - OUT =       2.0182E-06              IN - OUT =       9.6974E-09

 PERCENT DISCREPANCY =           0.00     PERCENT DISCREPANCY =           0.00




         TIME SUMMARY AT END OF TIME STEP   69 IN STRESS PERIOD    2
                    SECONDS     MINUTES      HOURS       DAYS        YEARS
                    -----------------------------------------------------------
   TIME STEP LENGTH 8.64000E+05  14400.      240.00      10.000     2.73785E-02
 STRESS PERIOD TIME 5.96160E+07 9.93600E+05  16560.      690.00      1.8891    
         TOTAL TIME 5.97024E+07 9.95040E+05  16584.      691.00      1.8919    


end timestep


start timestep kper="2" kstp="70" mode="normal"

 UBDSV1 SAVING           STO-SS ON UNIT   1042 AT TIME STEP     70, STRESS PERIOD      2
 UBDSV1 SAVING           STO-SY ON UNIT   1042 AT TIME STEP     70, STRESS PERIOD      2
 UBDSV1 SAVING     FLOW-JA-FACE ON UNIT   1042 AT TIME STEP     70, STRESS PERIOD      2
 UBDSV06 SAVING       DATA-SPDIS IN MODEL GWF              PACKAGE NPF             CONNECTED TO MODEL GWF              PACKAGE NPF              ON UNIT   1042 AT TIME STEP     70, STRESS PERIOD      2
 UBDSV06 SAVING              WEL IN MODEL GWF              PACKAGE GWF             CONNECTED TO MODEL GWF              PACKAGE WEL-1            ON UNIT   1042 AT TIME STEP     70, STRESS PERIOD      2
 UBDSV06 SAVING              API IN MODEL GWF              PACKAGE GWF             CONNECTED TO MODEL GWF              PACKAGE MAR              ON UNIT   1042 AT TIME STEP     70, STRESS PERIOD      2
 UBDSV06 SAVING              CHD IN MODEL GWF              PACKAGE GWF             CONNECTED TO MODEL GWF              PACKAGE CHD_0            ON UNIT   1042 AT TIME STEP     70, STRESS PERIOD      2

    CALCULATED INTERCELL FLOW FOR PERIOD 2 STEP 70
(1,1,1): (1,1,2) 7.649477E-02 (1,2,1) 8.223829E-02
(1,1,2): (1,1,1) -7.649477E-02 (1,1,3) 0.148981 (1,2,2) 0.135533
(1,1,3): (1,1,2) -0.148981 (1,1,4) 0.195535 (1,2,3) 0.248134
(1,1,4): (1,1,3) -0.195535 (1,1,5) 0.176584 (1,2,4) 0.413306
(1,1,5): (1,1,4) -0.176584 (1,1,6) 7.207084E-02 (1,2,5) 0.579170
(1,1,6): (1,1,5) -7.207084E-02 (1,1,7) -6.626984E-02 (1,2,6) 0.645776
(1,1,7): (1,1,6) 6.626984E-02 (1,1,8) -0.165651 (1,2,7) 0.581971
(1,1,8): (1,1,7) 0.165651 (1,1,9) -0.172266 (1,2,8) 0.421685
(1,1,9): (1,1,8) 0.172266 (1,1,10) -0.103499 (1,2,9) 0.269377
(1,1,10): (1,1,9) 0.103499 (1,2,10) 0.184636
(1,2,1): (1,1,1) -8.223829E-02 (1,2,2) 0.129786 (1,3,1) 0.156367
(1,2,2): (1,1,2) -0.135533 (1,2,1) -0.129786 (1,2,3) 0.261597 (1,3,2) 0.269543
(1,2,3): (1,1,3) -0.248134 (1,2,2) -0.261597 (1,2,4) 0.360622 (1,3,3) 0.522806
(1,2,4): (1,1,4) -0.413306 (1,2,3) -0.360622 (1,2,5) 0.342068 (1,3,4) 0.927976
(1,2,5): (1,1,5) -0.579170 (1,2,4) -0.342068 (1,2,6) 0.138353 (1,3,5) 1.37636
(1,2,6): (1,1,6) -0.645776 (1,2,5) -0.138353 (1,2,7) -0.129759 (1,3,6) 1.54709
(1,2,7): (1,1,7) -0.581971 (1,2,6) 0.129759 (1,2,8) -0.325540 (1,3,7) 1.38149
(1,2,8): (1,1,8) -0.421685 (1,2,7) 0.325540 (1,2,9) -0.324429 (1,3,8) 0.943389
(1,2,9): (1,1,9) -0.269377 (1,2,8) 0.324429 (1,2,10) -0.188173 (1,3,9) 0.562621
(1,2,10): (1,1,10) -0.184636 (1,2,9) 0.188173 (1,3,10) 0.364679
(1,3,1): (1,2,1) -0.156367 (1,3,2) 0.242933 (1,4,1) 0.184470
(1,3,2): (1,2,2) -0.269543 (1,3,1) -0.242933 (1,3,3) 0.514840 (1,4,2) 0.346812
(1,3,3): (1,2,3) -0.522806 (1,3,2) -0.514840 (1,3,4) 0.765163 (1,4,3) 0.755280
(1,3,4): (1,2,4) -0.927976 (1,3,3) -0.765163 (1,3,5) 0.787984 (1,4,4) 1.53517
(1,3,5): (1,2,5) -1.37636 (1,3,4) -0.787984 (1,3,6) 0.307140 (1,4,5) 2.60060
(1,3,6): (1,2,6) -1.54709 (1,3,5) -0.307140 (1,3,7) -0.293453 (1,4,6) 2.93764
(1,3,7): (1,2,7) -1.38149 (1,3,6) 0.293453 (1,3,8) -0.761099 (1,4,7) 2.60631
(1,3,8): (1,2,8) -0.943389 (1,3,7) 0.761099 (1,3,9) -0.704330 (1,4,8) 1.55225
(1,3,9): (1,2,9) -0.562621 (1,3,8) 0.704330 (1,3,10) -0.385776 (1,4,9) 0.800753
(1,3,10): (1,2,10) -0.364679 (1,3,9) 0.385776 (1,4,10) 0.462330
(1,4,1): (1,3,1) -0.184470 (1,4,2) 0.405368 (1,5,1) 9.426835E-02
(1,4,2): (1,3,2) -0.346812 (1,4,1) -0.405368 (1,4,3) 0.923967 (1,5,2) 0.225395
(1,4,3): (1,3,3) -0.755280 (1,4,2) -0.923967 (1,4,4) 1.54513 (1,5,3) 0.667189
(1,4,4): (1,3,4) -1.53517 (1,4,3) -1.54513 (1,4,5) 1.84632 (1,5,4) 1.90887
(1,4,5): (1,3,5) -2.60060 (1,4,4) -1.84632 (1,4,6) 0.637553 (1,5,5) 4.58592
(1,4,6): (1,3,6) -2.93764 (1,4,5) -0.637553 (1,4,7) -0.618219 (1,5,6) 5.01414
(1,4,7): (1,3,7) -2.60631 (1,4,6) 0.618219 (1,4,8) -1.80773 (1,5,7) 4.58864
(1,4,8): (1,3,8) -1.55225 (1,4,7) 1.80773 (1,4,9) -1.45515 (1,5,8) 1.91626
(1,4,9): (1,3,9) -0.800753 (1,4,8) 1.45515 (1,4,10) -0.723952 (1,5,9) 0.687996
(1,4,10): (1,3,10) -0.462330 (1,4,9) 0.723952 (1,5,10) 0.287638
(1,5,1): (1,4,1) -9.426835E-02 (1,5,2) 0.536892 (1,6,1) -0.155533
(1,5,2): (1,4,2) -0.225395 (1,5,1) -0.536892 (1,5,3) 1.36869 (1,6,2) -0.260534
(1,5,3): (1,4,3) -0.667189 (1,5,2) -1.36869 (1,5,4) 2.79663 (1,6,3) -0.322300
(1,5,4): (1,4,4) -1.90887 (1,5,3) -2.79663 (1,5,5) 4.52198 (1,6,4) 0.710657
(1,5,5): (1,4,5) -4.58592 (1,5,4) -4.52198 (1,5,6) 1.05314 (1,6,5) 8.63535
(1,5,6): (1,4,6) -5.01414 (1,5,5) -1.05314 (1,5,7) -1.03107 (1,6,6) 7.71374
(1,5,7): (1,4,7) -4.58864 (1,5,6) 1.03107 (1,5,8) -4.47771 (1,6,7) 8.63139
(1,5,8): (1,4,8) -1.91626 (1,5,7) 4.47771 (1,5,9) -2.69189 (1,6,8) 0.696654
(1,5,9): (1,4,9) -0.687996 (1,5,8) 2.69189 (1,5,10) -1.12596 (1,6,9) -0.361920
(1,5,10): (1,4,10) -0.287638 (1,5,9) 1.12596 (1,6,10) -0.360719
(1,6,1): (1,5,1) 0.155533 (1,6,2) 0.431610 (1,7,1) -0.416908
(1,6,2): (1,5,2) 0.260534 (1,6,1) -0.431610 (1,6,3) 1.30634 (1,7,2) -0.958855
(1,6,3): (1,5,3) 0.322300 (1,6,2) -1.30634 (1,6,4) 3.85790 (1,7,3) -2.69291
(1,6,4): (1,5,4) -0.710657 (1,6,3) -3.85790 (1,6,5) 12.6798 (1,7,4) -7.92620
(1,6,5): (1,5,5) -8.63535 (1,6,4) -12.6798 (1,6,6) 0.182965 (1,7,5) -25.3378
(1,6,6): (1,5,6) -7.71374 (1,6,5) -0.182965 (1,6,7) -0.164700 (1,7,6) -38.3701
(1,6,7): (1,5,7) -8.63139 (1,6,6) 0.164700 (1,6,8) -12.6440 (1,7,7) -25.3485
(1,6,8): (1,5,8) -0.696654 (1,6,7) 12.6440 (1,6,9) -3.77862 (1,7,8) -7.95745
(1,6,9): (1,5,9) 0.361920 (1,6,8) 3.77862 (1,6,10) -1.12478 (1,7,9) -2.78785
(1,6,10): (1,5,10) 0.360719 (1,6,9) 1.12478 (1,7,10) -1.24253
(1,7,1): (1,6,1) 0.416908 (1,7,2) -0.107658 (1,8,1) -0.301394
(1,7,2): (1,6,2) 0.958855 (1,7,1) 0.107658 (1,7,3) -0.406515 (1,8,2) -0.713578
(1,7,3): (1,6,3) 2.69291 (1,7,2) 0.406515 (1,7,4) -1.20350 (1,8,3) -2.05493
(1,7,4): (1,6,4) 7.92620 (1,7,3) 1.20350 (1,7,5) -3.30248 (1,8,4) -6.07266
(1,7,5): (1,6,5) 25.3378 (1,7,4) 3.30248 (1,7,6) -10.4181 (1,8,5) -18.4382
(1,7,6): (1,6,6) 38.3701 (1,7,5) 10.4181 (1,7,7) 10.4281 (1,8,6) -59.2982
(1,7,7): (1,6,7) 25.3485 (1,7,6) -10.4281 (1,7,8) 3.31522 (1,8,7) -18.4455
(1,7,8): (1,6,8) 7.95745 (1,7,7) -3.31522 (1,7,9) 1.21693 (1,8,8) -6.09440
(1,7,9): (1,6,9) 2.78785 (1,7,8) -1.21693 (1,7,10) 0.397803 (1,8,9) -2.12226
(1,7,10): (1,6,10) 1.24253 (1,7,9) -0.397803 (1,8,10) -0.919903
(1,8,1): (1,7,1) 0.301394 (1,8,2) -0.519043 (1,9,1) 9.640878E-02
(1,8,2): (1,7,2) 0.713578 (1,8,1) 0.519043 (1,8,3) -1.74372 (1,9,2) 0.261753
(1,8,3): (1,7,3) 2.05493 (1,8,2) 1.74372 (1,8,4) -5.18609 (1,9,3) 0.906792
(1,8,4): (1,7,4) 6.07266 (1,8,3) 5.18609 (1,8,5) -15.2955 (1,9,4) 3.31780
(1,8,5): (1,7,5) 18.4382 (1,8,4) 15.2955 (1,8,6) -46.9611 (1,9,5) 12.4674
(1,8,6): (1,7,6) 59.2982 (1,8,5) 46.9611 (1,8,7) 46.9663 (1,9,6) 49.5918
(1,8,7): (1,7,7) 18.4455 (1,8,6) -46.9663 (1,8,8) 15.2929 (1,9,7) 12.4694
(1,8,8): (1,7,8) 6.09440 (1,8,7) -15.2929 (1,8,9) 5.15215 (1,9,8) 3.32375
(1,8,9): (1,7,9) 2.12226 (1,8,8) -5.15215 (1,8,10) 1.59384 (1,9,9) 0.926662
(1,8,10): (1,7,10) 0.919903 (1,8,9) -1.59384 (1,9,10) 0.328951
(1,9,1): (1,8,1) -9.640878E-02 (1,9,2) -0.353270 (1,10,1) 0.295786
(1,9,2): (1,8,2) -0.261753 (1,9,1) 0.353270 (1,9,3) -1.09318 (1,10,2) 0.678558
(1,9,3): (1,8,3) -0.906792 (1,9,2) 1.09318 (1,9,4) -2.72797 (1,10,3) 1.88383
(1,9,4): (1,8,4) -3.31780 (1,9,3) 2.72797 (1,9,5) -5.86721 (1,10,4) 5.35847
(1,9,5): (1,8,5) -12.4674 (1,9,4) 5.86721 (1,9,6) -10.7802 (1,10,5) 15.8925
(1,9,6): (1,8,6) -49.5918 (1,9,5) 10.7802 (1,9,7) 10.7855 (1,10,6) 26.4934
(1,9,7): (1,8,7) -12.4694 (1,9,6) -10.7855 (1,9,8) 5.86919 (1,10,7) 15.8989
(1,9,8): (1,8,8) -3.32375 (1,9,7) -5.86919 (1,9,9) 2.70920 (1,10,8) 5.37957
(1,9,9): (1,8,9) -0.926662 (1,9,8) -2.70920 (1,9,10) 0.992055 (1,10,9) 1.95011
(1,9,10): (1,8,10) -0.328951 (1,9,9) -0.992055 (1,10,10) 0.878757
(1,10,1): (1,9,1) -0.295786 (1,10,2) 2.827439E-02 (1,11,1) 0.179740
(1,10,2): (1,9,2) -0.678558 (1,10,1) -2.827439E-02 (1,10,3) 0.102829 (1,11,2) 0.354249
(1,10,3): (1,9,3) -1.88383 (1,10,2) -0.102829 (1,10,4) 0.664061 (1,11,3) 0.724433
(1,10,4): (1,9,4) -5.35847 (1,10,3) -0.664061 (1,10,5) 3.91376 (1,11,4) 0.974100
(1,10,5): (1,9,5) -15.8925 (1,10,4) -3.91376 (1,10,6) -1.61139 (1,11,5) -1.40592
(1,10,6): (1,9,6) -26.4934 (1,10,5) 1.61139 (1,10,7) 1.62193 (1,11,6) 0.249434
(1,10,7): (1,9,7) -15.8989 (1,10,6) -1.62193 (1,10,8) -3.89694 (1,11,7) -1.40194
(1,10,8): (1,9,8) -5.37957 (1,10,7) 3.89694 (1,10,9) -0.637160 (1,11,8) 0.988118
(1,10,9): (1,9,9) -1.95011 (1,10,8) 0.637160 (1,10,10) -6.926262E-02 (1,11,9) 0.767151
(1,10,10): (1,9,10) -0.878757 (1,10,9) 6.926262E-02 (1,11,10) 0.473368
(1,11,1): (1,10,1) -0.179740 (1,11,2) 0.202522 (1,12,1) 1.136325E-03
(1,11,2): (1,10,2) -0.354249 (1,11,1) -0.202522 (1,11,3) 0.472102 (1,12,2) 3.308271E-03
(1,11,3): (1,10,3) -0.724433 (1,11,2) -0.472102 (1,11,4) 0.913586 (1,12,3) -3.621707E-02
(1,11,4): (1,10,4) -0.974100 (1,11,3) -0.913586 (1,11,5) 1.48783 (1,12,4) -0.287230
(1,11,5): (1,10,5) 1.40592 (1,11,4) -1.48783 (1,11,6) 4.650499E-02 (1,12,5) -1.04440
(1,11,6): (1,10,6) -0.249434 (1,11,5) -4.650499E-02 (1,11,7) -3.219076E-02 (1,12,6) -0.890570
(1,11,7): (1,10,7) 1.40194 (1,11,6) 3.219076E-02 (1,11,8) -1.46129 (1,12,7) -1.04499
(1,11,8): (1,10,8) -0.988118 (1,11,7) 1.46129 (1,11,9) -0.857859 (1,12,8) -0.288008
(1,11,9): (1,10,9) -0.767151 (1,11,8) 0.857859 (1,11,10) -0.361887 (1,12,9) -3.598506E-02
(1,11,10): (1,10,10) -0.473368 (1,11,9) 0.361887 (1,12,10) 7.433376E-03
(1,12,1): (1,11,1) -1.136325E-03 (1,12,2) 0.204699 (1,13,1) -9.359848E-02
(1,12,2): (1,11,2) -3.308271E-03 (1,12,1) -0.204699 (1,12,3) 0.432408 (1,13,2) -0.154392
(1,12,3): (1,11,3) 3.621707E-02 (1,12,2) -0.432408 (1,12,4) 0.661062 (1,13,3) -0.298740
(1,12,4): (1,11,4) 0.287230 (1,12,3) -0.661062 (1,12,5) 0.727534 (1,13,4) -0.562937
(1,12,5): (1,11,5) 1.04440 (1,12,4) -0.727534 (1,12,6) 0.199122 (1,13,5) -0.912928
(1,12,6): (1,11,6) 0.890570 (1,12,5) -0.199122 (1,12,7) -0.185371 (1,13,6) -0.975156
(1,12,7): (1,11,7) 1.04499 (1,12,6) 0.185371 (1,12,8) -0.701376 (1,13,7) -0.916310
(1,12,8): (1,11,8) 0.288008 (1,12,7) 0.701376 (1,12,9) -0.604456 (1,13,8) -0.572690
(1,12,9): (1,11,9) 3.598506E-02 (1,12,8) 0.604456 (1,12,10) -0.318331 (1,13,9) -0.322650
(1,12,10): (1,11,10) -7.433376E-03 (1,12,9) 0.318331 (1,13,10) -0.208572
(1,13,1): (1,12,1) 9.359848E-02 (1,13,2) 0.143875 (1,14,1) -9.847492E-02
(1,13,2): (1,12,2) 0.154392 (1,13,1) -0.143875 (1,13,3) 0.287872 (1,14,2) -0.156216
(1,13,3): (1,12,3) 0.298740 (1,13,2) -0.287872 (1,13,4) 0.396615 (1,14,3) -0.277440
(1,13,4): (1,12,4) 0.562937 (1,13,3) -0.396615 (1,13,5) 0.378156 (1,14,4) -0.456874
(1,13,5): (1,12,5) 0.912928 (1,13,4) -0.378156 (1,13,6) 0.137340 (1,14,5) -0.640607
(1,13,6): (1,12,6) 0.975156 (1,13,5) -0.137340 (1,13,7) -0.126954 (1,14,6) -0.701780
(1,13,7): (1,12,7) 0.916310 (1,13,6) 0.126954 (1,13,8) -0.358453 (1,14,7) -0.644154
(1,13,8): (1,12,8) 0.572690 (1,13,7) 0.358453 (1,13,9) -0.354339 (1,14,8) -0.467270
(1,13,9): (1,12,9) 0.322650 (1,13,8) 0.354339 (1,13,10) -0.204259 (1,14,9) -0.303017
(1,13,10): (1,12,10) 0.208572 (1,13,9) 0.204259 (1,14,10) -0.213234
(1,14,1): (1,13,1) 9.847492E-02 (1,14,2) 8.614081E-02 (1,15,1) -5.641415E-02
(1,14,2): (1,13,2) 0.156216 (1,14,1) -8.614081E-02 (1,14,3) 0.166635 (1,15,2) -8.743654E-02
(1,14,3): (1,13,3) 0.277440 (1,14,2) -0.166635 (1,14,4) 0.217287 (1,15,3) -0.149693
(1,14,4): (1,13,4) 0.456874 (1,14,3) -0.217287 (1,14,5) 0.194887 (1,15,4) -0.235116
(1,14,5): (1,13,5) 0.640607 (1,14,4) -0.194887 (1,14,6) 7.649654E-02 (1,15,5) -0.315318
(1,14,6): (1,13,6) 0.701780 (1,14,5) -7.649654E-02 (1,14,7) -6.964407E-02 (1,15,6) -0.345762
(1,14,7): (1,13,7) 0.644154 (1,14,6) 6.964407E-02 (1,14,8) -0.182055 (1,15,7) -0.317385
(1,14,8): (1,13,8) 0.467270 (1,14,7) 0.182055 (1,14,9) -0.190267 (1,15,8) -0.241169
(1,14,9): (1,13,9) 0.303017 (1,14,8) 0.190267 (1,14,10) -0.114562 (1,15,9) -0.164474
(1,14,10): (1,13,10) 0.213234 (1,14,9) 0.114562 (1,15,10) -0.119867
(1,15,1): (1,14,1) 5.641415E-02 (1,15,2) 5.511881E-02
(1,15,2): (1,14,2) 8.743654E-02 (1,15,1) -5.511881E-02 (1,15,3) 0.104368
(1,15,3): (1,14,3) 0.149693 (1,15,2) -0.104368 (1,15,4) 0.131879
(1,15,4): (1,14,4) 0.235116 (1,15,3) -0.131879 (1,15,5) 0.114779
(1,15,5): (1,14,5) 0.315318 (1,15,4) -0.114779 (1,15,6) 4.613208E-02
(1,15,6): (1,14,6) 0.345762 (1,15,5) -4.613208E-02 (1,15,7) -4.134333E-02
(1,15,7): (1,14,7) 0.317385 (1,15,6) 4.134333E-02 (1,15,8) -0.105940
(1,15,8): (1,14,8) 0.241169 (1,15,7) 0.105940 (1,15,9) -0.113610
(1,15,9): (1,14,9) 0.164474 (1,15,8) 0.113610 (1,15,10) -6.997658E-02
(1,15,10): (1,14,10) 0.119867 (1,15,9) 6.997658E-02

 WEL PACKAGE (WEL-1) FLOW RATES   PERIOD      2   STEP       70
 ----------------------------------------------------------------------------------------
   NUMBER   CELLID                    RATE       NAME                                    
 ----------------------------------------------------------------------------------------
     1      (1,8,6)              -203.03340      WEL                                     
 ----------------------------------------------------------------------------------------




 API PACKAGE (MAR) FLOW RATES   PERIOD      2   STEP       70
 -----------------------------------------------
   NUMBER   CELLID                    RATE      
 -----------------------------------------------
     1      (1,6,5)               46.666667     
     2      (1,6,6)               46.666667     
     3      (1,6,7)               46.666667     
     4      (1,10,5)              21.011133     
     5      (1,10,6)              21.011133     
     6      (1,10,7)              21.011133     
 -----------------------------------------------



1
  HEAD IN LAYER   1 AT END OF TIME STEP  70 IN STRESS PERIOD    2
  ---------------------------------------------------------------------------

            1           2           3           4           5           6           7           8           9          10
 ........................................................................................................................
   1   1.5088E-02  2.2720E-02  3.7562E-02  5.7005E-02  7.4533E-02  8.1681E-02  7.5108E-02  5.8666E-02  4.1540E-02  3.1233E-02
   2   2.3292E-02  3.6224E-02  6.2222E-02  9.7935E-02  0.1317      0.1453      0.1325      0.1004      6.8295E-02  4.9606E-02
   3   3.8869E-02  6.3010E-02  0.1139      0.1890      0.2658      0.2956      0.2671      0.1930      0.1239      8.5764E-02
   4   5.7211E-02  9.7357E-02  0.1880      0.3375      0.5131      0.5734      0.5150      0.3430      0.2024      0.1314    
   5   6.6575E-02  0.1196      0.2531      0.5190      0.9326       1.028      0.9346      0.5251      0.2694      0.1597    
   6   5.1125E-02  9.3884E-02  0.2217      0.5861       1.672       1.688       1.674      0.5909      0.2341      0.1242    
   7   9.6459E-03 -1.1095E-03 -4.1765E-02 -0.1626     -0.4983      -1.595     -0.4974     -0.1605     -3.8299E-02  1.4755E-03
   8  -2.0465E-02 -7.2475E-02 -0.2481     -0.7799      -2.439      -8.650      -2.438     -0.7798     -0.2513     -9.0501E-02
   9  -1.0813E-02 -4.6178E-02 -0.1560     -0.4331      -1.046      -2.250      -1.046     -0.4324     -0.1572     -5.7416E-02
  10   1.8710E-02  2.1532E-02  3.1782E-02  9.7546E-02  0.4713      0.3174      0.4723      0.1002      3.7096E-02  3.0195E-02
  11   3.6619E-02  5.6757E-02  0.1035      0.1931      0.3370      0.3415      0.3384      0.1971      0.1130      7.7169E-02
  12   3.6732E-02  5.7085E-02  9.9899E-02  0.1649      0.2360      0.2554      0.2373      0.1688      0.1094      7.7907E-02
  13   2.7406E-02  4.1734E-02  7.0320E-02  0.1096      0.1468      0.1603      0.1478      0.1125      7.7480E-02  5.7211E-02
  14   1.7586E-02  2.6177E-02  4.2770E-02  6.4360E-02  8.3686E-02  9.1267E-02  8.4366E-02  6.6312E-02  4.7411E-02  3.6009E-02
  15   1.1954E-02  1.7456E-02  2.7864E-02  4.0998E-02  5.2416E-02  5.7003E-02  5.2893E-02  4.2354E-02  3.1041E-02  2.4065E-02

 HEAD WILL BE SAVED ON UNIT 1043 AT END OF TIME STEP   70, STRESS PERIOD    2


  VOLUME BUDGET FOR ENTIRE MODEL AT END OF TIME STEP   70, STRESS PERIOD   2
  ---------------------------------------------------------------------------------------------------

     CUMULATIVE VOLUME      L**3       RATES FOR THIS TIME STEP      L**3/T          PACKAGE NAME    
     ------------------                 ------------------------                     ----------------

           IN:                                      IN:
           ---                                      ---
              STO-SS =          24.4914                STO-SS =       1.5608E-02     STORAGE                          
              STO-SY =       58269.0426                STO-SY =          32.2773     STORAGE                          
                 WEL =           0.0000                   WEL =           0.0000     WEL-1                            
                 API =      159708.3088                   API =         203.0334     MAR                              
                 CHD =       2.8247E-08                   CHD =           0.0000     CHD_0                            

            TOTAL IN =      218001.8428              TOTAL IN =         235.3263

          OUT:                                     OUT:
          ----                                     ----
              STO-SS =          30.2262                STO-SS =       1.6549E-02     STORAGE                          
              STO-SY =       58263.3079                STO-SY =          32.2763     STORAGE                          
                 WEL =      159708.3087                   WEL =         203.0334     WEL-1                            
                 API =           0.0000                   API =           0.0000     MAR                              
                 CHD =       3.0388E-08                   CHD =           0.0000     CHD_0                            

           TOTAL OUT =      218001.8428             TOTAL OUT =         235.3263

            IN - OUT =       2.1166E-06              IN - OUT =       9.8395E-09

 PERCENT DISCREPANCY =           0.00     PERCENT DISCREPANCY =           0.00




         TIME SUMMARY AT END OF TIME STEP   70 IN STRESS PERIOD    2
                    SECONDS     MINUTES      HOURS       DAYS        YEARS
                    -----------------------------------------------------------
   TIME STEP LENGTH 8.64000E+05  14400.      240.00      10.000     2.73785E-02
 STRESS PERIOD TIME 6.04800E+07 1.00800E+06  16800.      700.00      1.9165    
         TOTAL TIME 6.05664E+07 1.00944E+06  16824.      701.00      1.9192    


end timestep


start timestep kper="2" kstp="71" mode="normal"

 UBDSV1 SAVING           STO-SS ON UNIT   1042 AT TIME STEP     71, STRESS PERIOD      2
 UBDSV1 SAVING           STO-SY ON UNIT   1042 AT TIME STEP     71, STRESS PERIOD      2
 UBDSV1 SAVING     FLOW-JA-FACE ON UNIT   1042 AT TIME STEP     71, STRESS PERIOD      2
 UBDSV06 SAVING       DATA-SPDIS IN MODEL GWF              PACKAGE NPF             CONNECTED TO MODEL GWF              PACKAGE NPF              ON UNIT   1042 AT TIME STEP     71, STRESS PERIOD      2
 UBDSV06 SAVING              WEL IN MODEL GWF              PACKAGE GWF             CONNECTED TO MODEL GWF              PACKAGE WEL-1            ON UNIT   1042 AT TIME STEP     71, STRESS PERIOD      2
 UBDSV06 SAVING              API IN MODEL GWF              PACKAGE GWF             CONNECTED TO MODEL GWF              PACKAGE MAR              ON UNIT   1042 AT TIME STEP     71, STRESS PERIOD      2
 UBDSV06 SAVING              CHD IN MODEL GWF              PACKAGE GWF             CONNECTED TO MODEL GWF              PACKAGE CHD_0            ON UNIT   1042 AT TIME STEP     71, STRESS PERIOD      2

    CALCULATED INTERCELL FLOW FOR PERIOD 2 STEP 71
(1,1,1): (1,1,2) 7.897283E-02 (1,2,1) 8.448236E-02
(1,1,2): (1,1,1) -7.897283E-02 (1,1,3) 0.153343 (1,2,2) 0.138392
(1,1,3): (1,1,2) -0.153343 (1,1,4) 0.200560 (1,2,3) 0.252039
(1,1,4): (1,1,3) -0.200560 (1,1,5) 0.180643 (1,2,4) 0.418363
(1,1,5): (1,1,4) -0.180643 (1,1,6) 7.373404E-02 (1,2,5) 0.585122
(1,1,6): (1,1,5) -7.373404E-02 (1,1,7) -6.751305E-02 (1,2,6) 0.652100
(1,1,7): (1,1,6) 6.751305E-02 (1,1,8) -0.169042 (1,2,7) 0.588046
(1,1,8): (1,1,7) 0.169042 (1,1,9) -0.176120 (1,2,8) 0.427052
(1,1,9): (1,1,8) 0.176120 (1,1,10) -0.105998 (1,2,9) 0.273910
(1,1,10): (1,1,9) 0.105998 (1,2,10) 0.188609
(1,2,1): (1,1,1) -8.448236E-02 (1,2,2) 0.132879 (1,3,1) 0.159683
(1,2,2): (1,1,2) -0.138392 (1,2,1) -0.132879 (1,2,3) 0.267006 (1,3,2) 0.273656
(1,2,3): (1,1,3) -0.252039 (1,2,2) -0.267006 (1,2,4) 0.366800 (1,3,3) 0.528225
(1,2,4): (1,1,4) -0.418363 (1,2,3) -0.366800 (1,2,5) 0.347019 (1,3,4) 0.934757
(1,2,5): (1,1,5) -0.585122 (1,2,4) -0.347019 (1,2,6) 0.140384 (1,3,5) 1.38414
(1,2,6): (1,1,6) -0.652100 (1,2,5) -0.140384 (1,2,7) -0.131247 (1,3,6) 1.55532
(1,2,7): (1,1,7) -0.588046 (1,2,6) 0.131247 (1,2,8) -0.329635 (1,3,7) 1.38946
(1,2,8): (1,1,8) -0.427052 (1,2,7) 0.329635 (1,2,9) -0.329116 (1,3,8) 0.950642
(1,2,9): (1,1,9) -0.273910 (1,2,8) 0.329116 (1,2,10) -0.191230 (1,3,9) 0.568970
(1,2,10): (1,1,10) -0.188609 (1,2,9) 0.191230 (1,3,10) 0.370394
(1,3,1): (1,2,1) -0.159683 (1,3,2) 0.246822 (1,4,1) 0.186604
(1,3,2): (1,2,2) -0.273656 (1,3,1) -0.246822 (1,3,3) 0.521560 (1,4,2) 0.349142
(1,3,3): (1,2,3) -0.528225 (1,3,2) -0.521560 (1,3,4) 0.772703 (1,4,3) 0.757802
(1,3,4): (1,2,4) -0.934757 (1,3,3) -0.772703 (1,3,5) 0.793928 (1,4,4) 1.53769
(1,3,5): (1,2,5) -1.38414 (1,3,4) -0.793928 (1,3,6) 0.309597 (1,4,5) 2.60296
(1,3,6): (1,2,6) -1.55532 (1,3,5) -0.309597 (1,3,7) -0.295177 (1,4,6) 2.94005
(1,3,7): (1,2,7) -1.38946 (1,3,6) 0.295177 (1,3,8) -0.765902 (1,4,7) 2.60881
(1,3,8): (1,2,8) -0.950642 (1,3,7) 0.765902 (1,3,9) -0.709913 (1,4,8) 1.55510
(1,3,9): (1,2,9) -0.568970 (1,3,8) 0.709913 (1,3,10) -0.389461 (1,4,9) 0.803876
(1,3,10): (1,2,10) -0.370394 (1,3,9) 0.389461 (1,4,10) 0.465558
(1,4,1): (1,3,1) -0.186604 (1,4,2) 0.409455 (1,5,1) 9.277110E-02
(1,4,2): (1,3,2) -0.349142 (1,4,1) -0.409455 (1,4,3) 0.930896 (1,5,2) 0.222743
(1,4,3): (1,3,3) -0.757802 (1,4,2) -0.930896 (1,4,4) 1.55270 (1,5,3) 0.662413
(1,4,4): (1,3,4) -1.53769 (1,4,3) -1.55270 (1,4,5) 1.85215 (1,5,4) 1.90157
(1,4,5): (1,3,5) -2.60296 (1,4,4) -1.85215 (1,4,6) 0.640063 (1,5,5) 4.57648
(1,4,6): (1,3,6) -2.94005 (1,4,5) -0.640063 (1,4,7) -0.619845 (1,5,6) 5.00429
(1,4,7): (1,3,7) -2.60881 (1,4,6) 0.619845 (1,4,8) -1.81221 (1,5,7) 4.57919
(1,4,8): (1,3,8) -1.55510 (1,4,7) 1.81221 (1,4,9) -1.46049 (1,5,8) 1.90883
(1,4,9): (1,3,9) -0.803876 (1,4,8) 1.46049 (1,4,10) -0.727534 (1,5,9) 0.682812
(1,4,10): (1,3,10) -0.465558 (1,4,9) 0.727534 (1,5,10) 0.283927
(1,5,1): (1,4,1) -9.277110E-02 (1,5,2) 0.539828 (1,6,1) -0.161458
(1,5,2): (1,4,2) -0.222743 (1,5,1) -0.539828 (1,5,3) 1.37352 (1,6,2) -0.269097
(1,5,3): (1,4,3) -0.662413 (1,5,2) -1.37352 (1,5,4) 2.80179 (1,6,3) -0.335360
(1,5,4): (1,4,4) -1.90157 (1,5,3) -2.80179 (1,5,5) 4.52596 (1,6,4) 0.693012
(1,5,5): (1,4,5) -4.57648 (1,5,4) -4.52596 (1,5,6) 1.05529 (1,6,5) 8.61423
(1,5,6): (1,4,6) -5.00429 (1,5,5) -1.05529 (1,5,7) -1.03235 (1,6,6) 7.69286
(1,5,7): (1,4,7) -4.57919 (1,5,6) 1.03235 (1,5,8) -4.48043 (1,6,7) 8.61003
(1,5,8): (1,4,8) -1.90883 (1,5,7) 4.48043 (1,5,9) -2.69508 (1,6,8) 0.678318
(1,5,9): (1,4,9) -0.682812 (1,5,8) 2.69508 (1,5,10) -1.12809 (1,6,9) -0.376603
(1,5,10): (1,4,10) -0.283927 (1,5,9) 1.12809 (1,6,10) -0.372651
(1,6,1): (1,5,1) 0.161458 (1,6,2) 0.431906 (1,7,1) -0.425069
(1,6,2): (1,5,2) 0.269097 (1,6,1) -0.431906 (1,6,3) 1.30664 (1,7,2) -0.970401
(1,6,3): (1,5,3) 0.335360 (1,6,2) -1.30664 (1,6,4) 3.85844 (1,7,3) -2.71017
(1,6,4): (1,5,4) -0.693012 (1,6,3) -3.85844 (1,6,5) 12.6815 (1,7,4) -7.94908
(1,6,5): (1,5,5) -8.61423 (1,6,4) -12.6815 (1,6,6) 0.185182 (1,7,5) -25.3633
(1,6,6): (1,5,6) -7.69286 (1,6,5) -0.185182 (1,6,7) -0.166280 (1,7,6) -38.3919
(1,6,7): (1,5,7) -8.61003 (1,6,6) 0.166280 (1,6,8) -12.6449 (1,7,7) -25.3744
(1,6,8): (1,5,8) -0.678318 (1,6,7) 12.6449 (1,6,9) -3.77813 (1,7,8) -7.98130
(1,6,9): (1,5,9) 0.376603 (1,6,8) 3.77813 (1,6,10) -1.12414 (1,7,9) -2.80732
(1,6,10): (1,5,10) 0.372651 (1,6,9) 1.12414 (1,7,10) -1.25858
(1,7,1): (1,6,1) 0.425069 (1,7,2) -0.110677 (1,8,1) -0.307861
(1,7,2): (1,6,2) 0.970401 (1,7,1) 0.110677 (1,7,3) -0.411622 (1,8,2) -0.723271
(1,7,3): (1,6,3) 2.71017 (1,7,2) 0.411622 (1,7,4) -1.20751 (1,8,3) -2.07053
(1,7,4): (1,6,4) 7.94908 (1,7,3) 1.20751 (1,7,5) -3.30059 (1,8,4) -6.09472
(1,7,5): (1,6,5) 25.3633 (1,7,4) 3.30059 (1,7,6) -10.4107 (1,8,5) -18.4615
(1,7,6): (1,6,6) 38.3919 (1,7,5) 10.4107 (1,7,7) 10.4210 (1,8,6) -59.3011
(1,7,7): (1,6,7) 25.3744 (1,7,6) -10.4210 (1,7,8) 3.31352 (1,8,7) -18.4690
(1,7,8): (1,6,8) 7.98130 (1,7,7) -3.31352 (1,7,9) 1.22069 (1,8,8) -6.11720
(1,7,9): (1,6,9) 2.80732 (1,7,8) -1.22069 (1,7,10) 0.401545 (1,8,9) -2.13958
(1,7,10): (1,6,10) 1.25858 (1,7,9) -0.401545 (1,8,10) -0.933263
(1,8,1): (1,7,1) 0.307861 (1,8,2) -0.525267 (1,9,1) 9.467742E-02
(1,8,2): (1,7,2) 0.723271 (1,8,1) 0.525267 (1,8,3) -1.75466 (1,9,2) 0.257954
(1,8,3): (1,7,3) 2.07053 (1,8,2) 1.75466 (1,8,4) -5.19602 (1,9,3) 0.897761
(1,8,4): (1,7,4) 6.09472 (1,8,3) 5.19602 (1,8,5) -15.2914 (1,9,4) 3.29798
(1,8,5): (1,7,5) 18.4615 (1,8,4) 15.2914 (1,8,6) -46.9181 (1,9,5) 12.4253
(1,8,6): (1,7,6) 59.3011 (1,8,5) 46.9181 (1,8,7) 46.9234 (1,9,6) 49.4941
(1,8,7): (1,7,7) 18.4690 (1,8,6) -46.9234 (1,8,8) 15.2886 (1,9,7) 12.4273
(1,8,8): (1,7,8) 6.11720 (1,8,7) -15.2886 (1,8,9) 5.16077 (1,9,8) 3.30381
(1,8,9): (1,7,9) 2.13958 (1,8,8) -5.16077 (1,8,10) 1.60140 (1,9,9) 0.917226
(1,8,10): (1,7,10) 0.933263 (1,8,9) -1.60140 (1,9,10) 0.323912
(1,9,1): (1,8,1) -9.467742E-02 (1,9,2) -0.361551 (1,10,1) 0.298968
(1,9,2): (1,8,2) -0.257954 (1,9,1) 0.361551 (1,9,3) -1.10926 (1,10,2) 0.681962
(1,9,3): (1,8,3) -0.897761 (1,9,2) 1.10926 (1,9,4) -2.74810 (1,10,3) 1.88599
(1,9,4): (1,8,4) -3.29798 (1,9,3) 2.74810 (1,9,5) -5.88189 (1,10,4) 5.35345
(1,9,5): (1,8,5) -12.4253 (1,9,4) 5.88189 (1,9,6) -10.7734 (1,10,5) 15.8622
(1,9,6): (1,8,6) -49.4941 (1,9,5) 10.7734 (1,9,7) 10.7787 (1,10,6) 26.4446
(1,9,7): (1,8,7) -12.4273 (1,9,6) -10.7787 (1,9,8) 5.88351 (1,10,7) 15.8688
(1,9,8): (1,8,8) -3.30381 (1,9,7) -5.88351 (1,9,9) 2.72776 (1,10,8) 5.37497
(1,9,9): (1,8,9) -0.917226 (1,9,8) -2.72776 (1,9,10) 1.00394 (1,10,9) 1.95316
(1,9,10): (1,8,10) -0.323912 (1,9,9) -1.00394 (1,10,10) 0.883666
(1,10,1): (1,9,1) -0.298968 (1,10,2) 2.023001E-02 (1,11,1) 0.185302
(1,10,2): (1,9,2) -0.681962 (1,10,1) -2.023001E-02 (1,10,3) 8.564366E-02 (1,11,2) 0.362541
(1,10,3): (1,9,3) -1.88599 (1,10,2) -8.564366E-02 (1,10,4) 0.637334 (1,11,3) 0.738003
(1,10,4): (1,9,4) -5.35345 (1,10,3) -0.637334 (1,10,5) 3.87606 (1,11,4) 0.995785
(1,10,5): (1,9,5) -15.8622 (1,10,4) -3.87606 (1,10,6) -1.61950 (1,11,5) -1.36776
(1,10,6): (1,9,6) -26.4446 (1,10,5) 1.61950 (1,10,7) 1.63022 (1,11,6) 0.288180
(1,10,7): (1,9,7) -15.8688 (1,10,6) -1.63022 (1,10,8) -3.85933 (1,11,7) -1.36358
(1,10,8): (1,9,8) -5.37497 (1,10,7) 3.85933 (1,10,9) -0.611501 (1,11,8) 1.01040
(1,10,9): (1,9,9) -1.95316 (1,10,8) 0.611501 (1,10,10) -5.560939E-02 (1,11,9) 0.782185
(1,10,10): (1,9,10) -0.883666 (1,10,9) 5.560939E-02 (1,11,10) 0.484823
(1,11,1): (1,10,1) -0.185302 (1,11,2) 0.197180 (1,12,1) 5.532679E-03
(1,11,2): (1,10,2) -0.362541 (1,11,1) -0.197180 (1,11,3) 0.460087 (1,12,2) 1.092858E-02
(1,11,3): (1,10,3) -0.738003 (1,11,2) -0.460087 (1,11,4) 0.894872 (1,12,3) -2.198108E-02
(1,11,4): (1,10,4) -0.995785 (1,11,3) -0.894872 (1,11,5) 1.46730 (1,12,4) -0.263303
(1,11,5): (1,10,5) 1.36776 (1,11,4) -1.46730 (1,11,6) 3.949084E-02 (1,12,5) -1.00950
(1,11,6): (1,10,6) -0.288180 (1,11,5) -3.949084E-02 (1,11,7) -2.479795E-02 (1,12,6) -0.852355
(1,11,7): (1,10,7) 1.36358 (1,11,6) 2.479795E-02 (1,11,8) -1.44045 (1,12,7) -1.00998
(1,11,8): (1,10,8) -1.01040 (1,11,7) 1.44045 (1,11,9) -0.839349 (1,12,8) -0.263695
(1,11,9): (1,10,9) -0.782185 (1,11,8) 0.839349 (1,11,10) -0.351727 (1,12,9) -2.063025E-02
(1,11,10): (1,10,10) -0.484823 (1,11,9) 0.351727 (1,12,10) 1.786110E-02
(1,12,1): (1,11,1) -5.532679E-03 (1,12,2) 0.202586 (1,13,1) -9.199876E-02
(1,12,2): (1,11,2) -1.092858E-02 (1,12,1) -0.202586 (1,12,3) 0.427037 (1,13,2) -0.150617
(1,12,3): (1,11,3) 2.198108E-02 (1,12,2) -0.427037 (1,12,4) 0.652083 (1,13,3) -0.290350
(1,12,4): (1,11,4) 0.263303 (1,12,3) -0.652083 (1,12,5) 0.717913 (1,13,4) -0.547822
(1,12,5): (1,11,5) 1.00950 (1,12,4) -0.717913 (1,12,6) 0.195439 (1,13,5) -0.891039
(1,12,6): (1,11,6) 0.852355 (1,12,5) -0.195439 (1,12,7) -0.181200 (1,13,6) -0.950706
(1,12,7): (1,11,7) 1.00998 (1,12,6) 0.181200 (1,12,8) -0.691173 (1,13,7) -0.894438
(1,12,8): (1,11,8) 0.263695 (1,12,7) 0.691173 (1,12,9) -0.594938 (1,13,8) -0.557530
(1,12,9): (1,11,9) 2.063025E-02 (1,12,8) 0.594938 (1,12,10) -0.313114 (1,13,9) -0.313892
(1,12,10): (1,11,10) -1.786110E-02 (1,12,9) 0.313114 (1,13,10) -0.203457
(1,13,1): (1,12,1) 9.199876E-02 (1,13,2) 0.143938 (1,14,1) -9.889257E-02
(1,13,2): (1,12,2) 0.150617 (1,13,1) -0.143938 (1,13,3) 0.287118 (1,14,2) -0.155701
(1,13,3): (1,12,3) 0.290350 (1,13,2) -0.287118 (1,13,4) 0.394353 (1,14,3) -0.274807
(1,13,4): (1,12,4) 0.547822 (1,13,3) -0.394353 (1,13,5) 0.375256 (1,14,4) -0.451018
(1,13,5): (1,12,5) 0.891039 (1,13,4) -0.375256 (1,13,6) 0.136189 (1,14,5) -0.631519
(1,13,6): (1,12,6) 0.950706 (1,13,5) -0.136189 (1,13,7) -0.125333 (1,14,6) -0.691398
(1,13,7): (1,12,7) 0.894438 (1,13,6) 0.125333 (1,13,8) -0.354911 (1,14,7) -0.635149
(1,13,8): (1,12,8) 0.557530 (1,13,7) 0.354911 (1,13,9) -0.351212 (1,14,8) -0.461574
(1,13,9): (1,12,9) 0.313892 (1,13,8) 0.351212 (1,13,10) -0.202680 (1,14,9) -0.300545
(1,13,10): (1,12,10) 0.203457 (1,13,9) 0.202680 (1,14,10) -0.212590
(1,14,1): (1,13,1) 9.889257E-02 (1,14,2) 8.713644E-02 (1,15,1) -5.718448E-02
(1,14,2): (1,13,2) 0.155701 (1,14,1) -8.713644E-02 (1,14,3) 0.167997 (1,15,2) -8.797501E-02
(1,14,3): (1,13,3) 0.274807 (1,14,2) -0.167997 (1,14,4) 0.218240 (1,15,3) -0.149620
(1,14,4): (1,13,4) 0.451018 (1,14,3) -0.218240 (1,14,5) 0.195200 (1,15,4) -0.234014
(1,14,5): (1,13,5) 0.631519 (1,14,4) -0.195200 (1,14,6) 7.662691E-02 (1,15,5) -0.313139
(1,14,6): (1,13,6) 0.691398 (1,14,5) -7.662691E-02 (1,14,7) -6.938780E-02 (1,15,6) -0.343143
(1,14,7): (1,13,7) 0.635149 (1,14,6) 6.938780E-02 (1,14,8) -0.181805 (1,15,7) -0.315273
(1,14,8): (1,13,8) 0.461574 (1,14,7) 0.181805 (1,14,9) -0.190355 (1,15,8) -0.240216
(1,14,9): (1,13,9) 0.300545 (1,14,8) 0.190355 (1,14,10) -0.114810 (1,15,9) -0.164635
(1,14,10): (1,13,10) 0.212590 (1,14,9) 0.114810 (1,15,10) -0.120645
(1,15,1): (1,14,1) 5.718448E-02 (1,15,2) 5.634616E-02
(1,15,2): (1,14,2) 8.797501E-02 (1,15,1) -5.634616E-02 (1,15,3) 0.106341
(1,15,3): (1,14,3) 0.149620 (1,15,2) -0.106341 (1,15,4) 0.133859
(1,15,4): (1,14,4) 0.234014 (1,15,3) -0.133859 (1,15,5) 0.116167
(1,15,5): (1,14,5) 0.313139 (1,15,4) -0.116167 (1,15,6) 4.669993E-02
(1,15,6): (1,14,6) 0.343143 (1,15,5) -4.669993E-02 (1,15,7) -4.159153E-02
(1,15,7): (1,14,7) 0.315273 (1,15,6) 4.159153E-02 (1,15,8) -0.106846
(1,15,8): (1,14,8) 0.240216 (1,15,7) 0.106846 (1,15,9) -0.114810
(1,15,9): (1,14,9) 0.164635 (1,15,8) 0.114810 (1,15,10) -7.084197E-02
(1,15,10): (1,14,10) 0.120645 (1,15,9) 7.084197E-02

 WEL PACKAGE (WEL-1) FLOW RATES   PERIOD      2   STEP       71
 ----------------------------------------------------------------------------------------
   NUMBER   CELLID                    RATE       NAME                                    
 ----------------------------------------------------------------------------------------
     1      (1,8,6)              -202.84677      WEL                                     
 ----------------------------------------------------------------------------------------




 API PACKAGE (MAR) FLOW RATES   PERIOD      2   STEP       71
 -----------------------------------------------
   NUMBER   CELLID                    RATE      
 -----------------------------------------------
     1      (1,6,5)               46.666667     
     2      (1,6,6)               46.666667     
     3      (1,6,7)               46.666667     
     4      (1,10,5)              20.948922     
     5      (1,10,6)              20.948922     
     6      (1,10,7)              20.948922     
 -----------------------------------------------



1
  HEAD IN LAYER   1 AT END OF TIME STEP  71 IN STRESS PERIOD    2
  ---------------------------------------------------------------------------

            1           2           3           4           5           6           7           8           9          10
 ........................................................................................................................
   1   1.5905E-02  2.3783E-02  3.9058E-02  5.8996E-02  7.6922E-02  8.4234E-02  7.7539E-02  6.0765E-02  4.3260E-02  3.2706E-02
   2   2.4332E-02  3.7570E-02  6.4101E-02  0.1004      0.1347      0.1485      0.1356      0.1030      7.0459E-02  5.1470E-02
   3   4.0237E-02  6.4760E-02  0.1163      0.1921      0.2694      0.2995      0.2708      0.1963      0.1266      8.8185E-02
   4   5.8788E-02  9.9331E-02  0.1907      0.3408      0.5169      0.5775      0.5189      0.3466      0.2054      0.1341    
   5   6.8002E-02  0.1213      0.2553      0.5216      0.9354       1.031      0.9375      0.5279      0.2719      0.1621    
   6   5.1966E-02  9.4751E-02  0.2226      0.5870       1.673       1.689       1.675      0.5919      0.2352      0.1254    
   7   9.6785E-03 -1.3784E-03 -4.2546E-02 -0.1638     -0.4994      -1.595     -0.4984     -0.1616     -3.9056E-02  1.0945E-03
   8  -2.1078E-02 -7.3715E-02 -0.2505     -0.7834      -2.443      -8.651      -2.442     -0.7834     -0.2539     -9.2222E-02
   9  -1.1599E-02 -4.7796E-02 -0.1593     -0.4385      -1.054      -2.258      -1.053     -0.4379     -0.1606     -5.9636E-02
  10   1.8243E-02  2.0262E-02  2.8802E-02  9.1955E-02  0.4624      0.3076      0.4634      9.4599E-02  3.4022E-02  2.8480E-02
  11   3.6706E-02  5.6313E-02  0.1019      0.1897      0.3317      0.3355      0.3331      0.1937      0.1114      7.6593E-02
  12   3.7257E-02  5.7400E-02  9.9682E-02  0.1638      0.2340      0.2531      0.2354      0.1679      0.1093      7.8366E-02
  13   2.8091E-02  4.2424E-02  7.0934E-02  0.1099      0.1469      0.1603      0.1480      0.1130      7.8289E-02  5.8178E-02
  14   1.8230E-02  2.6920E-02  4.3647E-02  6.5329E-02  8.4685E-02  9.2278E-02  8.5402E-02  6.7376E-02  4.8468E-02  3.7042E-02
  15   1.2522E-02  1.8146E-02  2.8750E-02  4.2079E-02  5.3634E-02  5.8277E-02  5.4142E-02  4.3515E-02  3.2084E-02  2.5022E-02

 HEAD WILL BE SAVED ON UNIT 1043 AT END OF TIME STEP   71, STRESS PERIOD    2


  VOLUME BUDGET FOR ENTIRE MODEL AT END OF TIME STEP   71, STRESS PERIOD   2
  ---------------------------------------------------------------------------------------------------

     CUMULATIVE VOLUME      L**3       RATES FOR THIS TIME STEP      L**3/T          PACKAGE NAME    
     ------------------                 ------------------------                     ----------------

           IN:                                      IN:
           ---                                      ---
              STO-SS =          24.6459                STO-SS =       1.5442E-02     STORAGE                          
              STO-SY =       58588.3506                STO-SY =          31.9308     STORAGE                          
                 WEL =           0.0000                   WEL =           0.0000     WEL-1                            
                 API =      161736.7764                   API =         202.8468     MAR                              
                 CHD =       2.8247E-08                   CHD =           0.0000     CHD_0                            

            TOTAL IN =      220349.7729              TOTAL IN =         234.7930

          OUT:                                     OUT:
          ----                                     ----
              STO-SS =          30.3899                STO-SS =       1.6372E-02     STORAGE                          
              STO-SY =       58582.6066                STO-SY =          31.9299     STORAGE                          
                 WEL =      161736.7764                   WEL =         202.8468     WEL-1                            
                 API =           0.0000                   API =           0.0000     MAR                              
                 CHD =       3.0388E-08                   CHD =           0.0000     CHD_0                            

           TOTAL OUT =      220349.7729             TOTAL OUT =         234.7930

            IN - OUT =       2.2162E-06              IN - OUT =       9.9579E-09

 PERCENT DISCREPANCY =           0.00     PERCENT DISCREPANCY =           0.00




         TIME SUMMARY AT END OF TIME STEP   71 IN STRESS PERIOD    2
                    SECONDS     MINUTES      HOURS       DAYS        YEARS
                    -----------------------------------------------------------
   TIME STEP LENGTH 8.64000E+05  14400.      240.00      10.000     2.73785E-02
 STRESS PERIOD TIME 6.13440E+07 1.02240E+06  17040.      710.00      1.9439    
         TOTAL TIME 6.14304E+07 1.02384E+06  17064.      711.00      1.9466    


end timestep


start timestep kper="2" kstp="72" mode="normal"

 UBDSV1 SAVING           STO-SS ON UNIT   1042 AT TIME STEP     72, STRESS PERIOD      2
 UBDSV1 SAVING           STO-SY ON UNIT   1042 AT TIME STEP     72, STRESS PERIOD      2
 UBDSV1 SAVING     FLOW-JA-FACE ON UNIT   1042 AT TIME STEP     72, STRESS PERIOD      2
 UBDSV06 SAVING       DATA-SPDIS IN MODEL GWF              PACKAGE NPF             CONNECTED TO MODEL GWF              PACKAGE NPF              ON UNIT   1042 AT TIME STEP     72, STRESS PERIOD      2
 UBDSV06 SAVING              WEL IN MODEL GWF              PACKAGE GWF             CONNECTED TO MODEL GWF              PACKAGE WEL-1            ON UNIT   1042 AT TIME STEP     72, STRESS PERIOD      2
 UBDSV06 SAVING              API IN MODEL GWF              PACKAGE GWF             CONNECTED TO MODEL GWF              PACKAGE MAR              ON UNIT   1042 AT TIME STEP     72, STRESS PERIOD      2
 UBDSV06 SAVING              CHD IN MODEL GWF              PACKAGE GWF             CONNECTED TO MODEL GWF              PACKAGE CHD_0            ON UNIT   1042 AT TIME STEP     72, STRESS PERIOD      2

    CALCULATED INTERCELL FLOW FOR PERIOD 2 STEP 72
(1,1,1): (1,1,2) 8.145064E-02 (1,2,1) 8.669690E-02
(1,1,2): (1,1,1) -8.145064E-02 (1,1,3) 0.157694 (1,2,2) 0.141191
(1,1,3): (1,1,2) -0.157694 (1,1,4) 0.205561 (1,2,3) 0.255831
(1,1,4): (1,1,3) -0.205561 (1,1,5) 0.184676 (1,2,4) 0.423243
(1,1,5): (1,1,4) -0.184676 (1,1,6) 7.539085E-02 (1,2,5) 0.590846
(1,1,6): (1,1,5) -7.539085E-02 (1,1,7) -6.873075E-02 (1,2,6) 0.658178
(1,1,7): (1,1,6) 6.873075E-02 (1,1,8) -0.172384 (1,2,7) 0.593894
(1,1,8): (1,1,7) 0.172384 (1,1,9) -0.179925 (1,2,8) 0.432242
(1,1,9): (1,1,8) 0.179925 (1,1,10) -0.108467 (1,2,9) 0.278321
(1,1,10): (1,1,9) 0.108467 (1,2,10) 0.192497
(1,2,1): (1,1,1) -8.669690E-02 (1,2,2) 0.135942 (1,3,1) 0.162925
(1,2,2): (1,1,2) -0.141191 (1,2,1) -0.135942 (1,2,3) 0.272352 (1,3,2) 0.277643
(1,2,3): (1,1,3) -0.255831 (1,2,2) -0.272352 (1,2,4) 0.372890 (1,3,3) 0.533430
(1,2,4): (1,1,4) -0.423243 (1,2,3) -0.372890 (1,2,5) 0.351893 (1,3,4) 0.941224
(1,2,5): (1,1,5) -0.590846 (1,2,4) -0.351893 (1,2,6) 0.142390 (1,3,5) 1.39154
(1,2,6): (1,1,6) -0.658178 (1,2,5) -0.142390 (1,2,7) -0.132691 (1,3,6) 1.56312
(1,2,7): (1,1,7) -0.593894 (1,2,6) 0.132691 (1,2,8) -0.333631 (1,3,7) 1.39705
(1,2,8): (1,1,8) -0.432242 (1,2,7) 0.333631 (1,2,9) -0.333697 (1,3,8) 0.957576
(1,2,9): (1,1,9) -0.278321 (1,2,8) 0.333697 (1,2,10) -0.194220 (1,3,9) 0.575084
(1,2,10): (1,1,10) -0.192497 (1,2,9) 0.194220 (1,3,10) 0.375929
(1,3,1): (1,2,1) -0.162925 (1,3,2) 0.250630 (1,4,1) 0.188626
(1,3,2): (1,2,2) -0.277643 (1,3,1) -0.250630 (1,3,3) 0.528127 (1,4,2) 0.351315
(1,3,3): (1,2,3) -0.533430 (1,3,2) -0.528127 (1,3,4) 0.780058 (1,4,3) 0.760099
(1,3,4): (1,2,4) -0.941224 (1,3,3) -0.780058 (1,3,5) 0.799721 (1,4,4) 1.53992
(1,3,5): (1,2,5) -1.39154 (1,3,4) -0.799721 (1,3,6) 0.312000 (1,4,5) 2.60499
(1,3,6): (1,2,6) -1.56312 (1,3,5) -0.312000 (1,3,7) -0.296828 (1,4,6) 2.94211
(1,3,7): (1,2,7) -1.39705 (1,3,6) 0.296828 (1,3,8) -0.770538 (1,4,7) 2.61099
(1,3,8): (1,2,8) -0.957576 (1,3,7) 0.770538 (1,3,9) -0.715308 (1,4,8) 1.55766
(1,3,9): (1,2,9) -0.575084 (1,3,8) 0.715308 (1,3,10) -0.393024 (1,4,9) 0.806741
(1,3,10): (1,2,10) -0.375929 (1,3,9) 0.393024 (1,4,10) 0.468561
(1,4,1): (1,3,1) -0.188626 (1,4,2) 0.413417 (1,5,1) 9.117844E-02
(1,4,2): (1,3,2) -0.351315 (1,4,1) -0.413417 (1,4,3) 0.937603 (1,5,2) 0.219999
(1,4,3): (1,3,3) -0.760099 (1,4,2) -0.937603 (1,4,4) 1.56002 (1,5,3) 0.657573
(1,4,4): (1,3,4) -1.53992 (1,4,3) -1.56002 (1,4,5) 1.85778 (1,5,4) 1.89426
(1,4,5): (1,3,5) -2.60499 (1,4,4) -1.85778 (1,4,6) 0.642505 (1,5,5) 4.56711
(1,4,6): (1,3,6) -2.94211 (1,4,5) -0.642505 (1,4,7) -0.621388 (1,5,6) 4.99451
(1,4,7): (1,3,7) -2.61099 (1,4,6) 0.621388 (1,4,8) -1.81650 (1,5,7) 4.56979
(1,4,8): (1,3,8) -1.55766 (1,4,7) 1.81650 (1,4,9) -1.46559 (1,5,8) 1.90139
(1,4,9): (1,3,9) -0.806741 (1,4,8) 1.46559 (1,4,10) -0.730961 (1,5,9) 0.677533
(1,4,10): (1,3,10) -0.468561 (1,4,9) 0.730961 (1,5,10) 0.280081
(1,5,1): (1,4,1) -9.117844E-02 (1,5,2) 0.542642 (1,6,1) -0.167403
(1,5,2): (1,4,2) -0.219999 (1,5,1) -0.542642 (1,5,3) 1.37815 (1,6,2) -0.277610
(1,5,3): (1,4,3) -0.657573 (1,5,2) -1.37815 (1,5,4) 2.80676 (1,6,3) -0.348223
(1,5,4): (1,4,4) -1.89426 (1,5,3) -2.80676 (1,5,5) 4.52982 (1,6,4) 0.675744
(1,5,5): (1,4,5) -4.56711 (1,5,4) -4.52982 (1,5,6) 1.05739 (1,6,5) 8.59363
(1,5,6): (1,4,6) -4.99451 (1,5,5) -1.05739 (1,5,7) -1.03357 (1,6,6) 7.67250
(1,5,7): (1,4,7) -4.56979 (1,5,6) 1.03357 (1,5,8) -4.48302 (1,6,7) 8.58917
(1,5,8): (1,4,8) -1.90139 (1,5,7) 4.48302 (1,5,9) -2.69812 (1,6,8) 0.660347
(1,5,9): (1,4,9) -0.677533 (1,5,8) 2.69812 (1,5,10) -1.13010 (1,6,9) -0.391101
(1,5,10): (1,4,10) -0.280081 (1,5,9) 1.13010 (1,6,10) -0.384518
(1,6,1): (1,5,1) 0.167403 (1,6,2) 0.432153 (1,7,1) -0.433199
(1,6,2): (1,5,2) 0.277610 (1,6,1) -0.432153 (1,6,3) 1.30689 (1,7,2) -0.981813
(1,6,3): (1,5,3) 0.348223 (1,6,2) -1.30689 (1,6,4) 3.85897 (1,7,3) -2.72709
(1,6,4): (1,5,4) -0.675744 (1,6,3) -3.85897 (1,6,5) 12.6832 (1,7,4) -7.97141
(1,6,5): (1,5,5) -8.59363 (1,6,4) -12.6832 (1,6,6) 0.187353 (1,7,5) -25.3881
(1,6,6): (1,5,6) -7.67250 (1,6,5) -0.187353 (1,6,7) -0.167813 (1,7,6) -38.4131
(1,6,7): (1,5,7) -8.58917 (1,6,6) 0.167813 (1,6,8) -12.6458 (1,7,7) -25.3996
(1,6,8): (1,5,8) -0.660347 (1,6,7) 12.6458 (1,6,9) -3.77767 (1,7,8) -8.00460
(1,6,9): (1,5,9) 0.391101 (1,6,8) 3.77767 (1,6,10) -1.12350 (1,7,9) -2.82645
(1,6,10): (1,5,10) 0.384518 (1,6,9) 1.12350 (1,7,10) -1.27445
(1,7,1): (1,6,1) 0.433199 (1,7,2) -0.113641 (1,8,1) -0.314335
(1,7,2): (1,6,2) 0.981813 (1,7,1) 0.113641 (1,7,3) -0.416584 (1,8,2) -0.732892
(1,7,3): (1,6,3) 2.72709 (1,7,2) 0.416584 (1,7,4) -1.21133 (1,8,3) -2.08590
(1,7,4): (1,6,4) 7.97141 (1,7,3) 1.21133 (1,7,5) -3.29866 (1,8,4) -6.11635
(1,7,5): (1,6,5) 25.3881 (1,7,4) 3.29866 (1,7,6) -10.4036 (1,8,5) -18.4842
(1,7,6): (1,6,6) 38.4131 (1,7,5) 10.4036 (1,7,7) 10.4142 (1,8,6) -59.3040
(1,7,7): (1,6,7) 25.3996 (1,7,6) -10.4142 (1,7,8) 3.31179 (1,8,7) -18.4920
(1,7,8): (1,6,8) 8.00460 (1,7,7) -3.31179 (1,7,9) 1.22424 (1,8,8) -6.13957
(1,7,9): (1,6,9) 2.82645 (1,7,8) -1.22424 (1,7,10) 0.405134 (1,8,9) -2.15667
(1,7,10): (1,6,10) 1.27445 (1,7,9) -0.405134 (1,8,10) -0.946531
(1,8,1): (1,7,1) 0.314335 (1,8,2) -0.531358 (1,9,1) 9.285578E-02
(1,8,2): (1,7,2) 0.732892 (1,8,1) 0.531358 (1,8,3) -1.76529 (1,9,2) 0.254073
(1,8,3): (1,7,3) 2.08590 (1,8,2) 1.76529 (1,8,4) -5.20556 (1,9,3) 0.888725
(1,8,4): (1,7,4) 6.11635 (1,8,3) 5.20556 (1,8,5) -15.2872 (1,9,4) 3.27840
(1,8,5): (1,7,5) 18.4842 (1,8,4) 15.2872 (1,8,6) -46.8763 (1,9,5) 12.3841
(1,8,6): (1,7,6) 59.3040 (1,8,5) 46.8763 (1,8,7) 46.8816 (1,9,6) 49.3987
(1,8,7): (1,7,7) 18.4920 (1,8,6) -46.8816 (1,8,8) 15.2841 (1,9,7) 12.3861
(1,8,8): (1,7,8) 6.13957 (1,8,7) -15.2841 (1,8,9) 5.16898 (1,9,8) 3.28411
(1,8,9): (1,7,9) 2.15667 (1,8,8) -5.16898 (1,8,10) 1.60867 (1,9,9) 0.907757
(1,8,10): (1,7,10) 0.946531 (1,8,9) -1.60867 (1,9,10) 0.318750
(1,9,1): (1,8,1) -9.285578E-02 (1,9,2) -0.369690 (1,10,1) 0.302035
(1,9,2): (1,8,2) -0.254073 (1,9,1) 0.369690 (1,9,3) -1.12496 (1,10,2) 0.685187
(1,9,3): (1,8,3) -0.888725 (1,9,2) 1.12496 (1,9,4) -2.76761 (1,10,3) 1.88790
(1,9,4): (1,8,4) -3.27840 (1,9,3) 2.76761 (1,9,5) -5.89602 (1,10,4) 5.34827
(1,9,5): (1,8,5) -12.3841 (1,9,4) 5.89602 (1,9,6) -10.7666 (1,10,5) 15.8323
(1,9,6): (1,8,6) -49.3987 (1,9,5) 10.7666 (1,9,7) 10.7720 (1,10,6) 26.3967
(1,9,7): (1,8,7) -12.3861 (1,9,6) -10.7720 (1,9,8) 5.89725 (1,10,7) 15.8391
(1,9,8): (1,8,8) -3.28411 (1,9,7) -5.89725 (1,9,9) 2.74566 (1,10,8) 5.37020
(1,9,9): (1,8,9) -0.907757 (1,9,8) -2.74566 (1,9,10) 1.01544 (1,10,9) 1.95593
(1,9,10): (1,8,10) -0.318750 (1,9,9) -1.01544 (1,10,10) 0.888319
(1,10,1): (1,9,1) -0.302035 (1,10,2) 1.226397E-02 (1,11,1) 0.190817
(1,10,2): (1,9,2) -0.685187 (1,10,1) -1.226397E-02 (1,10,3) 6.877447E-02 (1,11,2) 0.370676
(1,10,3): (1,9,3) -1.88790 (1,10,2) -6.877447E-02 (1,10,4) 0.611318 (1,11,3) 0.751178
(1,10,4): (1,9,4) -5.34827 (1,10,3) -0.611318 (1,10,5) 3.83949 (1,11,4) 1.01671
(1,10,5): (1,9,5) -15.8323 (1,10,4) -3.83949 (1,10,6) -1.62733 (1,11,5) -1.33096
(1,10,6): (1,9,6) -26.3967 (1,10,5) 1.62733 (1,10,7) 1.63821 (1,11,6) 0.325509
(1,10,7): (1,9,7) -15.8391 (1,10,6) -1.63821 (1,10,8) -3.82288 (1,11,7) -1.32658
(1,10,8): (1,9,8) -5.37020 (1,10,7) 3.82288 (1,10,9) -0.586604 (1,11,8) 1.03192
(1,10,9): (1,9,9) -1.95593 (1,10,8) 0.586604 (1,10,10) -4.231361E-02 (1,11,9) 0.796818
(1,10,10): (1,9,10) -0.888319 (1,10,9) 4.231361E-02 (1,11,10) 0.496068
(1,11,1): (1,10,1) -0.190817 (1,11,2) 0.191805 (1,12,1) 1.000361E-02
(1,11,2): (1,10,2) -0.370676 (1,11,1) -0.191805 (1,11,3) 0.448151 (1,12,2) 1.855437E-02
(1,11,3): (1,10,3) -0.751178 (1,11,2) -0.448151 (1,11,4) 0.876497 (1,12,3) -7.926232E-03
(1,11,4): (1,10,4) -1.01671 (1,11,3) -0.876497 (1,11,5) 1.44728 (1,12,4) -0.239887
(1,11,5): (1,10,5) 1.33096 (1,11,4) -1.44728 (1,11,6) 3.266465E-02 (1,12,5) -0.975508
(1,11,6): (1,10,6) -0.325509 (1,11,5) -3.266465E-02 (1,11,7) -1.760295E-02 (1,12,6) -0.815179
(1,11,7): (1,10,7) 1.32658 (1,11,6) 1.760295E-02 (1,11,8) -1.42016 (1,12,7) -0.975871
(1,11,8): (1,10,8) -1.03192 (1,11,7) 1.42016 (1,11,9) -0.821241 (1,12,8) -0.239877
(1,11,9): (1,10,9) -0.796818 (1,11,8) 0.821241 (1,11,10) -0.341732 (1,12,9) -5.430806E-03
(1,11,10): (1,10,10) -0.496068 (1,11,9) 0.341732 (1,12,10) 2.831183E-02
(1,12,1): (1,11,1) -1.000361E-02 (1,12,2) 0.200372 (1,13,1) -9.025468E-02
(1,12,2): (1,11,2) -1.855437E-02 (1,12,1) -0.200372 (1,12,3) 0.421559 (1,13,2) -0.146698
(1,12,3): (1,11,3) 7.926232E-03 (1,12,2) -0.421559 (1,12,4) 0.643114 (1,13,3) -0.281862
(1,12,4): (1,11,4) 0.239887 (1,12,3) -0.643114 (1,12,5) 0.708416 (1,13,4) -0.532743
(1,12,5): (1,11,5) 0.975508 (1,12,4) -0.708416 (1,12,6) 0.191816 (1,13,5) -0.869369
(1,12,6): (1,11,6) 0.815179 (1,12,5) -0.191816 (1,12,7) -0.177093 (1,13,6) -0.926547
(1,12,7): (1,11,7) 0.975871 (1,12,6) 0.177093 (1,12,8) -0.681114 (1,13,7) -0.872777
(1,12,8): (1,11,8) 0.239877 (1,12,7) 0.681114 (1,12,9) -0.585482 (1,13,8) -0.542386
(1,12,9): (1,11,9) 5.430806E-03 (1,12,8) 0.585482 (1,12,10) -0.307886 (1,13,9) -0.304991
(1,12,10): (1,11,10) -2.831183E-02 (1,12,9) 0.307886 (1,13,10) -0.198127
(1,13,1): (1,12,1) 9.025468E-02 (1,13,2) 0.143898 (1,14,1) -9.918048E-02
(1,13,2): (1,12,2) 0.146698 (1,13,1) -0.143898 (1,13,3) 0.286211 (1,14,2) -0.155019
(1,13,3): (1,12,3) 0.281862 (1,13,2) -0.286211 (1,13,4) 0.391966 (1,14,3) -0.271967
(1,13,4): (1,12,4) 0.532743 (1,13,3) -0.391966 (1,13,5) 0.372303 (1,14,4) -0.444948
(1,13,5): (1,12,5) 0.869369 (1,13,4) -0.372303 (1,13,6) 0.135027 (1,14,5) -0.622245
(1,13,6): (1,12,6) 0.926547 (1,13,5) -0.135027 (1,13,7) -0.123696 (1,14,6) -0.680847
(1,13,7): (1,12,7) 0.872777 (1,13,6) 0.123696 (1,13,8) -0.351320 (1,14,7) -0.625954
(1,13,8): (1,12,8) 0.542386 (1,13,7) 0.351320 (1,13,9) -0.347990 (1,14,8) -0.455649
(1,13,9): (1,12,9) 0.304991 (1,13,8) 0.347990 (1,13,10) -0.201018 (1,14,9) -0.297827
(1,13,10): (1,12,10) 0.198127 (1,13,9) 0.201018 (1,14,10) -0.211707
(1,14,1): (1,13,1) 9.918048E-02 (1,14,2) 8.806611E-02 (1,15,1) -5.788602E-02
(1,14,2): (1,13,2) 0.155019 (1,14,1) -8.806611E-02 (1,14,3) 0.169247 (1,15,2) -8.841550E-02
(1,14,3): (1,13,3) 0.271967 (1,14,2) -0.169247 (1,14,4) 0.219075 (1,15,3) -0.149406
(1,14,4): (1,13,4) 0.444948 (1,14,3) -0.219075 (1,14,5) 0.195431 (1,15,4) -0.232733
(1,14,5): (1,13,5) 0.622245 (1,14,4) -0.195431 (1,14,6) 7.673087E-02 (1,15,5) -0.310762
(1,14,6): (1,13,6) 0.680847 (1,14,5) -7.673087E-02 (1,14,7) -6.909563E-02 (1,15,6) -0.340323
(1,14,7): (1,13,7) 0.625954 (1,14,6) 6.909563E-02 (1,14,8) -0.181466 (1,15,7) -0.312962
(1,14,8): (1,13,8) 0.455649 (1,14,7) 0.181466 (1,14,9) -0.190332 (1,15,8) -0.239078
(1,14,9): (1,13,9) 0.297827 (1,14,8) 0.190332 (1,14,10) -0.114980 (1,15,9) -0.164634
(1,14,10): (1,13,10) 0.211707 (1,14,9) 0.114980 (1,15,10) -0.121283
(1,15,1): (1,14,1) 5.788602E-02 (1,15,2) 5.753674E-02
(1,15,2): (1,14,2) 8.841550E-02 (1,15,1) -5.753674E-02 (1,15,3) 0.108245
(1,15,3): (1,14,3) 0.149406 (1,15,2) -0.108245 (1,15,4) 0.135758
(1,15,4): (1,14,4) 0.232733 (1,15,3) -0.135758 (1,15,5) 0.117490
(1,15,5): (1,14,5) 0.310762 (1,15,4) -0.117490 (1,15,6) 4.724625E-02
(1,15,6): (1,14,6) 0.340323 (1,15,5) -4.724625E-02 (1,15,7) -4.180675E-02
(1,15,7): (1,14,7) 0.312962 (1,15,6) 4.180675E-02 (1,15,8) -0.107676
(1,15,8): (1,14,8) 0.239078 (1,15,7) 0.107676 (1,15,9) -0.115924
(1,15,9): (1,14,9) 0.164634 (1,15,8) 0.115924 (1,15,10) -7.165030E-02
(1,15,10): (1,14,10) 0.121283 (1,15,9) 7.165030E-02

 WEL PACKAGE (WEL-1) FLOW RATES   PERIOD      2   STEP       72
 ----------------------------------------------------------------------------------------
   NUMBER   CELLID                    RATE       NAME                                    
 ----------------------------------------------------------------------------------------
     1      (1,8,6)              -202.66500      WEL                                     
 ----------------------------------------------------------------------------------------




 API PACKAGE (MAR) FLOW RATES   PERIOD      2   STEP       72
 -----------------------------------------------
   NUMBER   CELLID                    RATE      
 -----------------------------------------------
     1      (1,6,5)               46.666667     
     2      (1,6,6)               46.666667     
     3      (1,6,7)               46.666667     
     4      (1,10,5)              20.888334     
     5      (1,10,6)              20.888334     
     6      (1,10,7)              20.888334     
 -----------------------------------------------



1
  HEAD IN LAYER   1 AT END OF TIME STEP  72 IN STRESS PERIOD    2
  ---------------------------------------------------------------------------

            1           2           3           4           5           6           7           8           9          10
 ........................................................................................................................
   1   1.6745E-02  2.4870E-02  4.0575E-02  6.1007E-02  7.9329E-02  8.6803E-02  7.9989E-02  6.2888E-02  4.5008E-02  3.4210E-02
   2   2.5393E-02  3.8934E-02  6.5991E-02  0.1029      0.1376      0.1516      0.1386      0.1057      7.2639E-02  5.3357E-02
   3   4.1618E-02  6.6515E-02  0.1187      0.1952      0.2731      0.3033      0.2745      0.1995      0.1294      9.0612E-02
   4   6.0367E-02  0.1013      0.1933      0.3441      0.5207      0.5814      0.5227      0.3500      0.2084      0.1368    
   5   6.9422E-02  0.1230      0.2574      0.5241      0.9382       1.034      0.9404      0.5306      0.2744      0.1644    
   6   5.2797E-02  9.5603E-02  0.2234      0.5879       1.674       1.690       1.676      0.5929      0.2363      0.1266    
   7   9.7046E-03 -1.6484E-03 -4.3314E-02 -0.1650     -0.5004      -1.596     -0.4994     -0.1627     -3.9802E-02  7.0868E-04
   8  -2.1698E-02 -7.4950E-02 -0.2528     -0.7869      -2.446      -8.652      -2.446     -0.7868     -0.2563     -9.3938E-02
   9  -1.2401E-02 -4.9416E-02 -0.1625     -0.4438      -1.061      -2.265      -1.060     -0.4432     -0.1640     -6.1864E-02
  10   1.7749E-02  1.8973E-02  2.5833E-02  8.6440E-02  0.4537      0.2981      0.4548      8.9091E-02  3.0949E-02  2.6731E-02
  11   3.6761E-02  5.5835E-02  0.1002      0.1863      0.3264      0.3296      0.3279      0.1904      0.1098      7.5964E-02
  12   3.7757E-02  5.7679E-02  9.9420E-02  0.1627      0.2319      0.2507      0.2334      0.1668      0.1092      7.8773E-02
  13   2.8766E-02  4.3094E-02  7.1512E-02  0.1103      0.1470      0.1603      0.1481      0.1135      7.9059E-02  5.9115E-02
  14   1.8876E-02  2.7658E-02  4.4508E-02  6.6271E-02  8.5648E-02  9.3251E-02  8.6405E-02  6.8414E-02  4.9510E-02  3.8069E-02
  15   1.3098E-02  1.8841E-02  2.9634E-02  4.3151E-02  5.4836E-02  5.9533E-02  5.5377E-02  4.4668E-02  3.3128E-02  2.5986E-02

 HEAD WILL BE SAVED ON UNIT 1043 AT END OF TIME STEP   72, STRESS PERIOD    2


  VOLUME BUDGET FOR ENTIRE MODEL AT END OF TIME STEP   72, STRESS PERIOD   2
  ---------------------------------------------------------------------------------------------------

     CUMULATIVE VOLUME      L**3       RATES FOR THIS TIME STEP      L**3/T          PACKAGE NAME    
     ------------------                 ------------------------                     ----------------

           IN:                                      IN:
           ---                                      ---
              STO-SS =          24.7987                STO-SS =       1.5283E-02     STORAGE                          
              STO-SY =       58904.3245                STO-SY =          31.5974     STORAGE                          
                 WEL =           0.0000                   WEL =           0.0000     WEL-1                            
                 API =      163763.4265                   API =         202.6650     MAR                              
                 CHD =       2.8247E-08                   CHD =           0.0000     CHD_0                            

            TOTAL IN =      222692.5497              TOTAL IN =         234.2777

          OUT:                                     OUT:
          ----                                     ----
              STO-SS =          30.5519                STO-SS =       1.6202E-02     STORAGE                          
              STO-SY =       58898.5714                STO-SY =          31.5965     STORAGE                          
                 WEL =      163763.4264                   WEL =         202.6650     WEL-1                            
                 API =           0.0000                   API =           0.0000     MAR                              
                 CHD =       3.0388E-08                   CHD =           0.0000     CHD_0                            

           TOTAL OUT =      222692.5497             TOTAL OUT =         234.2777

            IN - OUT =       2.3168E-06              IN - OUT =       1.0069E-08

 PERCENT DISCREPANCY =           0.00     PERCENT DISCREPANCY =           0.00




         TIME SUMMARY AT END OF TIME STEP   72 IN STRESS PERIOD    2
                    SECONDS     MINUTES      HOURS       DAYS        YEARS
                    -----------------------------------------------------------
   TIME STEP LENGTH 8.64000E+05  14400.      240.00      10.000     2.73785E-02
 STRESS PERIOD TIME 6.22080E+07 1.03680E+06  17280.      720.00      1.9713    
         TOTAL TIME 6.22944E+07 1.03824E+06  17304.      721.00      1.9740    


end timestep


start timestep kper="2" kstp="73" mode="normal"

 UBDSV1 SAVING           STO-SS ON UNIT   1042 AT TIME STEP     73, STRESS PERIOD      2
 UBDSV1 SAVING           STO-SY ON UNIT   1042 AT TIME STEP     73, STRESS PERIOD      2
 UBDSV1 SAVING     FLOW-JA-FACE ON UNIT   1042 AT TIME STEP     73, STRESS PERIOD      2
 UBDSV06 SAVING       DATA-SPDIS IN MODEL GWF              PACKAGE NPF             CONNECTED TO MODEL GWF              PACKAGE NPF              ON UNIT   1042 AT TIME STEP     73, STRESS PERIOD      2
 UBDSV06 SAVING              WEL IN MODEL GWF              PACKAGE GWF             CONNECTED TO MODEL GWF              PACKAGE WEL-1            ON UNIT   1042 AT TIME STEP     73, STRESS PERIOD      2
 UBDSV06 SAVING              API IN MODEL GWF              PACKAGE GWF             CONNECTED TO MODEL GWF              PACKAGE MAR              ON UNIT   1042 AT TIME STEP     73, STRESS PERIOD      2
 UBDSV06 SAVING              CHD IN MODEL GWF              PACKAGE GWF             CONNECTED TO MODEL GWF              PACKAGE CHD_0            ON UNIT   1042 AT TIME STEP     73, STRESS PERIOD      2

    CALCULATED INTERCELL FLOW FOR PERIOD 2 STEP 73
(1,1,1): (1,1,2) 8.392635E-02 (1,2,1) 8.887980E-02
(1,1,2): (1,1,1) -8.392635E-02 (1,1,3) 0.162033 (1,2,2) 0.143930
(1,1,3): (1,1,2) -0.162033 (1,1,4) 0.210535 (1,2,3) 0.259510
(1,1,4): (1,1,3) -0.210535 (1,1,5) 0.188681 (1,2,4) 0.427950
(1,1,5): (1,1,4) -0.188681 (1,1,6) 7.704092E-02 (1,2,5) 0.596348
(1,1,6): (1,1,5) -7.704092E-02 (1,1,7) -6.992244E-02 (1,2,6) 0.664014
(1,1,7): (1,1,6) 6.992244E-02 (1,1,8) -0.175677 (1,2,7) 0.599520
(1,1,8): (1,1,7) 0.175677 (1,1,9) -0.183679 (1,2,8) 0.437256
(1,1,9): (1,1,8) 0.183679 (1,1,10) -0.110905 (1,2,9) 0.282611
(1,1,10): (1,1,9) 0.110905 (1,2,10) 0.196299
(1,2,1): (1,1,1) -8.887980E-02 (1,2,2) 0.138974 (1,3,1) 0.166090
(1,2,2): (1,1,2) -0.143930 (1,2,1) -0.138974 (1,2,3) 0.277634 (1,3,2) 0.281504
(1,2,3): (1,1,3) -0.259510 (1,2,2) -0.277634 (1,2,4) 0.378894 (1,3,3) 0.538425
(1,2,4): (1,1,4) -0.427950 (1,2,3) -0.378894 (1,2,5) 0.356690 (1,3,4) 0.947387
(1,2,5): (1,1,5) -0.596348 (1,2,4) -0.356690 (1,2,6) 0.144370 (1,3,5) 1.39856
(1,2,6): (1,1,6) -0.664014 (1,2,5) -0.144370 (1,2,7) -0.134089 (1,3,6) 1.57052
(1,2,7): (1,1,7) -0.599520 (1,2,6) 0.134089 (1,2,8) -0.337531 (1,3,7) 1.40426
(1,2,8): (1,1,8) -0.437256 (1,2,7) 0.337531 (1,2,9) -0.338175 (1,3,8) 0.964199
(1,2,9): (1,1,9) -0.282611 (1,2,8) 0.338175 (1,2,10) -0.197145 (1,3,9) 0.580965
(1,2,10): (1,1,10) -0.196299 (1,2,9) 0.197145 (1,3,10) 0.381285
(1,3,1): (1,2,1) -0.166090 (1,3,2) 0.254357 (1,4,1) 0.190537
(1,3,2): (1,2,2) -0.281504 (1,3,1) -0.254357 (1,3,3) 0.534544 (1,4,2) 0.353335
(1,3,3): (1,2,3) -0.538425 (1,3,2) -0.534544 (1,3,4) 0.787233 (1,4,3) 0.762179
(1,3,4): (1,2,4) -0.947387 (1,3,3) -0.787233 (1,3,5) 0.805368 (1,4,4) 1.54187
(1,3,5): (1,2,5) -1.39856 (1,3,4) -0.805368 (1,3,6) 0.314352 (1,4,5) 2.60672
(1,3,6): (1,2,6) -1.57052 (1,3,5) -0.314352 (1,3,7) -0.298410 (1,4,6) 2.94386
(1,3,7): (1,2,7) -1.40426 (1,3,6) 0.298410 (1,3,8) -0.775013 (1,4,7) 2.61286
(1,3,8): (1,2,8) -0.964199 (1,3,7) 0.775013 (1,3,9) -0.720521 (1,4,8) 1.55993
(1,3,9): (1,2,9) -0.580965 (1,3,8) 0.720521 (1,3,10) -0.396469 (1,4,9) 0.809356
(1,3,10): (1,2,10) -0.381285 (1,3,9) 0.396469 (1,4,10) 0.471344
(1,4,1): (1,3,1) -0.190537 (1,4,2) 0.417257 (1,5,1) 8.949336E-02
(1,4,2): (1,3,2) -0.353335 (1,4,1) -0.417257 (1,4,3) 0.944098 (1,5,2) 0.217169
(1,4,3): (1,3,3) -0.762179 (1,4,2) -0.944098 (1,4,4) 1.56711 (1,5,3) 0.652674
(1,4,4): (1,3,4) -1.54187 (1,4,3) -1.56711 (1,4,5) 1.86324 (1,5,4) 1.88696
(1,4,5): (1,3,5) -2.60672 (1,4,4) -1.86324 (1,4,6) 0.644882 (1,5,5) 4.55779
(1,4,6): (1,3,6) -2.94386 (1,4,5) -0.644882 (1,4,7) -0.622852 (1,5,6) 4.98481
(1,4,7): (1,3,7) -2.61286 (1,4,6) 0.622852 (1,4,8) -1.82060 (1,5,7) 4.56044
(1,4,8): (1,3,8) -1.55993 (1,4,7) 1.82060 (1,4,9) -1.47048 (1,5,8) 1.89393
(1,4,9): (1,3,9) -0.809356 (1,4,8) 1.47048 (1,4,10) -0.734239 (1,5,9) 0.672167
(1,4,10): (1,3,10) -0.471344 (1,4,9) 0.734239 (1,5,10) 0.276109
(1,5,1): (1,4,1) -8.949336E-02 (1,5,2) 0.545339 (1,6,1) -0.173368
(1,5,2): (1,4,2) -0.217169 (1,5,1) -0.545339 (1,5,3) 1.38260 (1,6,2) -0.286070
(1,5,3): (1,4,3) -0.652674 (1,5,2) -1.38260 (1,5,4) 2.81155 (1,6,3) -0.360895
(1,5,4): (1,4,4) -1.88696 (1,5,3) -2.81155 (1,5,5) 4.53355 (1,6,4) 0.658841
(1,5,5): (1,4,5) -4.55779 (1,5,4) -4.53355 (1,5,6) 1.05943 (1,6,5) 8.57353
(1,5,6): (1,4,6) -4.98481 (1,5,5) -1.05943 (1,5,7) -1.03472 (1,6,6) 7.65265
(1,5,7): (1,4,7) -4.56044 (1,5,6) 1.03472 (1,5,8) -4.48549 (1,6,7) 8.56882
(1,5,8): (1,4,8) -1.89393 (1,5,7) 4.48549 (1,5,9) -2.70101 (1,6,8) 0.642730
(1,5,9): (1,4,9) -0.672167 (1,5,8) 2.70101 (1,5,10) -1.13201 (1,6,9) -0.405416
(1,5,10): (1,4,10) -0.276109 (1,5,9) 1.13201 (1,6,10) -0.396318
(1,6,1): (1,5,1) 0.173368 (1,6,2) 0.432355 (1,7,1) -0.441298
(1,6,2): (1,5,2) 0.286070 (1,6,1) -0.432355 (1,6,3) 1.30709 (1,7,2) -0.993092
(1,6,3): (1,5,3) 0.360895 (1,6,2) -1.30709 (1,6,4) 3.85948 (1,7,3) -2.74370
(1,6,4): (1,5,4) -0.658841 (1,6,3) -3.85948 (1,6,5) 12.6849 (1,7,4) -7.99320
(1,6,5): (1,5,5) -8.57353 (1,6,4) -12.6849 (1,6,6) 0.189480 (1,7,5) -25.4123
(1,6,6): (1,5,6) -7.65265 (1,6,5) -0.189480 (1,6,7) -0.169299 (1,7,6) -38.4337
(1,6,7): (1,5,7) -8.56882 (1,6,6) 0.169299 (1,6,8) -12.6467 (1,7,7) -25.4241
(1,6,8): (1,5,8) -0.642730 (1,6,7) 12.6467 (1,6,9) -3.77722 (1,7,8) -8.02737
(1,6,9): (1,5,9) 0.405416 (1,6,8) 3.77722 (1,6,10) -1.12288 (1,7,9) -2.84526
(1,6,10): (1,5,10) 0.396318 (1,6,9) 1.12288 (1,7,10) -1.29015
(1,7,1): (1,6,1) 0.441298 (1,7,2) -0.116549 (1,8,1) -0.320813
(1,7,2): (1,6,2) 0.993092 (1,7,1) 0.116549 (1,7,3) -0.421405 (1,8,2) -0.742442
(1,7,3): (1,6,3) 2.74370 (1,7,2) 0.421405 (1,7,4) -1.21498 (1,8,3) -2.10104
(1,7,4): (1,6,4) 7.99320 (1,7,3) 1.21498 (1,7,5) -3.29671 (1,8,4) -6.13755
(1,7,5): (1,6,5) 25.4123 (1,7,4) 3.29671 (1,7,6) -10.3966 (1,8,5) -18.5064
(1,7,6): (1,6,6) 38.4337 (1,7,5) 10.3966 (1,7,7) 10.4075 (1,8,6) -59.3070
(1,7,7): (1,6,7) 25.4241 (1,7,6) -10.4075 (1,7,8) 3.31001 (1,8,7) -18.5145
(1,7,8): (1,6,8) 8.02737 (1,7,7) -3.31001 (1,7,9) 1.22760 (1,8,8) -6.16151
(1,7,9): (1,6,9) 2.84526 (1,7,8) -1.22760 (1,7,10) 0.408575 (1,8,9) -2.17353
(1,7,10): (1,6,10) 1.29015 (1,7,9) -0.408575 (1,8,10) -0.959705
(1,8,1): (1,7,1) 0.320813 (1,8,2) -0.537317 (1,9,1) 9.094722E-02
(1,8,2): (1,7,2) 0.742442 (1,8,1) 0.537317 (1,8,3) -1.77561 (1,9,2) 0.250117
(1,8,3): (1,7,3) 2.10104 (1,8,2) 1.77561 (1,8,4) -5.21472 (1,9,3) 0.879691
(1,8,4): (1,7,4) 6.13755 (1,8,3) 5.21472 (1,8,5) -15.2831 (1,9,4) 3.25908
(1,8,5): (1,7,5) 18.5064 (1,8,4) 15.2831 (1,8,6) -46.8355 (1,9,5) 12.3437
(1,8,6): (1,7,6) 59.3070 (1,8,5) 46.8355 (1,8,7) 46.8409 (1,9,6) 49.3055
(1,8,7): (1,7,7) 18.5145 (1,8,6) -46.8409 (1,8,8) 15.2796 (1,9,7) 12.3457
(1,8,8): (1,7,8) 6.16151 (1,8,7) -15.2796 (1,8,9) 5.17681 (1,9,8) 3.26464
(1,8,9): (1,7,9) 2.17353 (1,8,8) -5.17681 (1,8,10) 1.61566 (1,9,9) 0.898264
(1,8,10): (1,7,10) 0.959705 (1,8,9) -1.61566 (1,9,10) 0.313472
(1,9,1): (1,8,1) -9.094722E-02 (1,9,2) -0.377687 (1,10,1) 0.304989
(1,9,2): (1,8,2) -0.250117 (1,9,1) 0.377687 (1,9,3) -1.14029 (1,10,2) 0.688238
(1,9,3): (1,8,3) -0.879691 (1,9,2) 1.14029 (1,9,4) -2.78652 (1,10,3) 1.88957
(1,9,4): (1,8,4) -3.25908 (1,9,3) 2.78652 (1,9,5) -5.90962 (1,10,4) 5.34293
(1,9,5): (1,8,5) -12.3437 (1,9,4) 5.90962 (1,9,6) -10.7600 (1,10,5) 15.8028
(1,9,6): (1,8,6) -49.3055 (1,9,5) 10.7600 (1,9,7) 10.7654 (1,10,6) 26.3496
(1,9,7): (1,8,7) -12.3457 (1,9,6) -10.7654 (1,9,8) 5.91044 (1,10,7) 15.8098
(1,9,8): (1,8,8) -3.26464 (1,9,7) -5.91044 (1,9,9) 2.76294 (1,10,8) 5.36526
(1,9,9): (1,8,9) -0.898264 (1,9,8) -2.76294 (1,9,10) 1.02658 (1,10,9) 1.95844
(1,9,10): (1,8,10) -0.313472 (1,9,9) -1.02658 (1,10,10) 0.892724
(1,10,1): (1,9,1) -0.304989 (1,10,2) 4.381381E-03 (1,11,1) 0.196284
(1,10,2): (1,9,2) -0.688238 (1,10,1) -4.381381E-03 (1,10,3) 5.222035E-02 (1,11,2) 0.378656
(1,10,3): (1,9,3) -1.88957 (1,10,2) -5.222035E-02 (1,10,4) 0.585991 (1,11,3) 0.763971
(1,10,4): (1,9,4) -5.34293 (1,10,3) -0.585991 (1,10,5) 3.80400 (1,11,4) 1.03690
(1,10,5): (1,9,5) -15.8028 (1,10,4) -3.80400 (1,10,6) -1.63488 (1,11,5) -1.29547
(1,10,6): (1,9,6) -26.3496 (1,10,5) 1.63488 (1,10,7) 1.64592 (1,11,6) 0.361485
(1,10,7): (1,9,7) -15.8098 (1,10,6) -1.64592 (1,10,8) -3.78754 (1,11,7) -1.29087
(1,10,8): (1,9,8) -5.36526 (1,10,7) 3.78754 (1,10,9) -0.562444 (1,11,8) 1.05271
(1,10,9): (1,9,9) -1.95844 (1,10,8) 0.562444 (1,10,10) -2.936865E-02 (1,11,9) 0.811058
(1,10,10): (1,9,10) -0.892724 (1,10,9) 2.936865E-02 (1,11,10) 0.507103
(1,11,1): (1,10,1) -0.196284 (1,11,2) 0.186406 (1,12,1) 1.454325E-02
(1,11,2): (1,10,2) -0.378656 (1,11,1) -0.186406 (1,11,3) 0.436303 (1,12,2) 2.617909E-02
(1,11,3): (1,10,3) -0.763971 (1,11,2) -0.436303 (1,11,4) 0.858458 (1,12,3) 5.944546E-03
(1,11,4): (1,10,4) -1.03690 (1,11,3) -0.858458 (1,11,5) 1.42776 (1,12,4) -0.216972
(1,11,5): (1,10,5) 1.29547 (1,11,4) -1.42776 (1,11,6) 2.601976E-02 (1,12,5) -0.942397
(1,11,6): (1,10,6) -0.361485 (1,11,5) -2.601976E-02 (1,11,7) -1.059977E-02 (1,12,6) -0.779007
(1,11,7): (1,10,7) 1.29087 (1,11,6) 1.059977E-02 (1,11,8) -1.40040 (1,12,7) -0.942637
(1,11,8): (1,10,8) -1.05271 (1,11,7) 1.40040 (1,11,9) -0.803531 (1,12,8) -0.216545
(1,11,9): (1,10,9) -0.811058 (1,11,8) 0.803531 (1,11,10) -0.331906 (1,12,9) 9.609057E-03
(1,11,10): (1,10,10) -0.507103 (1,11,9) 0.331906 (1,12,10) 3.877519E-02
(1,12,1): (1,11,1) -1.454325E-02 (1,12,2) 0.198062 (1,13,1) -8.837052E-02
(1,12,2): (1,11,2) -2.617909E-02 (1,12,1) -0.198062 (1,12,3) 0.415987 (1,13,2) -0.142642
(1,12,3): (1,11,3) -5.944546E-03 (1,12,2) -0.415987 (1,12,4) 0.634162 (1,13,3) -0.273288
(1,12,4): (1,11,4) 0.216972 (1,12,3) -0.634162 (1,12,5) 0.699046 (1,13,4) -0.517714
(1,12,5): (1,11,5) 0.942397 (1,12,4) -0.699046 (1,12,6) 0.188254 (1,13,5) -0.847925
(1,12,6): (1,11,6) 0.779007 (1,12,5) -0.188254 (1,12,7) -0.173049 (1,13,6) -0.902686
(1,12,7): (1,11,7) 0.942637 (1,12,6) 0.173049 (1,12,8) -0.671201 (1,13,7) -0.851336
(1,12,8): (1,11,8) 0.216545 (1,12,7) 0.671201 (1,12,9) -0.576098 (1,13,8) -0.527271
(1,12,9): (1,11,9) -9.609057E-03 (1,12,8) 0.576098 (1,12,10) -0.302656 (1,13,9) -0.295963
(1,12,10): (1,11,10) -3.877519E-02 (1,12,9) 0.302656 (1,13,10) -0.192593
(1,13,1): (1,12,1) 8.837052E-02 (1,13,2) 0.143761 (1,14,1) -9.933940E-02
(1,13,2): (1,12,2) 0.142642 (1,13,1) -0.143761 (1,13,3) 0.285159 (1,14,2) -0.154175
(1,13,3): (1,12,3) 0.273288 (1,13,2) -0.285159 (1,13,4) 0.389462 (1,14,3) -0.268930
(1,13,4): (1,12,4) 0.517714 (1,13,3) -0.389462 (1,13,5) 0.369301 (1,14,4) -0.438679
(1,13,5): (1,12,5) 0.847925 (1,13,4) -0.369301 (1,13,6) 0.133855 (1,14,5) -0.612805
(1,13,6): (1,12,6) 0.902686 (1,13,5) -0.133855 (1,13,7) -0.122046 (1,14,6) -0.670145
(1,13,7): (1,12,7) 0.851336 (1,13,6) 0.122046 (1,13,8) -0.347688 (1,14,7) -0.616587
(1,13,8): (1,12,8) 0.527271 (1,13,7) 0.347688 (1,13,9) -0.344682 (1,14,8) -0.449510
(1,13,9): (1,12,9) 0.295963 (1,13,8) 0.344682 (1,13,10) -0.199280 (1,14,9) -0.294874
(1,13,10): (1,12,10) 0.192593 (1,13,9) 0.199280 (1,14,10) -0.210590
(1,14,1): (1,13,1) 9.933940E-02 (1,14,2) 8.893055E-02 (1,15,1) -5.851791E-02
(1,14,2): (1,13,2) 0.154175 (1,14,1) -8.893055E-02 (1,14,3) 0.170386 (1,15,2) -8.875893E-02
(1,14,3): (1,13,3) 0.268930 (1,14,2) -0.170386 (1,14,4) 0.219794 (1,15,3) -0.149054
(1,14,4): (1,13,4) 0.438679 (1,14,3) -0.219794 (1,14,5) 0.195583 (1,15,4) -0.231282
(1,14,5): (1,13,5) 0.612805 (1,14,4) -0.195583 (1,14,6) 7.680968E-02 (1,15,5) -0.308201
(1,14,6): (1,13,6) 0.670145 (1,14,5) -7.680968E-02 (1,14,7) -6.876919E-02 (1,15,6) -0.337313
(1,14,7): (1,13,7) 0.616587 (1,14,6) 6.876919E-02 (1,14,8) -0.181043 (1,15,7) -0.310463
(1,14,8): (1,13,8) 0.449510 (1,14,7) 0.181043 (1,14,9) -0.190203 (1,15,8) -0.237760
(1,14,9): (1,13,9) 0.294874 (1,14,8) 0.190203 (1,14,10) -0.115074 (1,15,9) -0.164475
(1,14,10): (1,13,10) 0.210590 (1,14,9) 0.115074 (1,15,10) -0.121782
(1,15,1): (1,14,1) 5.851791E-02 (1,15,2) 5.868947E-02
(1,15,2): (1,14,2) 8.875893E-02 (1,15,1) -5.868947E-02 (1,15,3) 0.110079
(1,15,3): (1,14,3) 0.149054 (1,15,2) -0.110079 (1,15,4) 0.137575
(1,15,4): (1,14,4) 0.231282 (1,15,3) -0.137575 (1,15,5) 0.118749
(1,15,5): (1,14,5) 0.308201 (1,15,4) -0.118749 (1,15,6) 4.777136E-02
(1,15,6): (1,14,6) 0.337313 (1,15,5) -4.777136E-02 (1,15,7) -4.198946E-02
(1,15,7): (1,14,7) 0.310463 (1,15,6) 4.198946E-02 (1,15,8) -0.108432
(1,15,8): (1,14,8) 0.237760 (1,15,7) 0.108432 (1,15,9) -0.116952
(1,15,9): (1,14,9) 0.164475 (1,15,8) 0.116952 (1,15,10) -7.240198E-02
(1,15,10): (1,14,10) 0.121782 (1,15,9) 7.240198E-02

 WEL PACKAGE (WEL-1) FLOW RATES   PERIOD      2   STEP       73
 ----------------------------------------------------------------------------------------
   NUMBER   CELLID                    RATE       NAME                                    
 ----------------------------------------------------------------------------------------
     1      (1,8,6)              -202.48791      WEL                                     
 ----------------------------------------------------------------------------------------




 API PACKAGE (MAR) FLOW RATES   PERIOD      2   STEP       73
 -----------------------------------------------
   NUMBER   CELLID                    RATE      
 -----------------------------------------------
     1      (1,6,5)               46.666667     
     2      (1,6,6)               46.666667     
     3      (1,6,7)               46.666667     
     4      (1,10,5)              20.829303     
     5      (1,10,6)              20.829303     
     6      (1,10,7)              20.829303     
 -----------------------------------------------



1
  HEAD IN LAYER   1 AT END OF TIME STEP  73 IN STRESS PERIOD    2
  ---------------------------------------------------------------------------

            1           2           3           4           5           6           7           8           9          10
 ........................................................................................................................
   1   1.7608E-02  2.5979E-02  4.2115E-02  6.3036E-02  8.1751E-02  8.9387E-02  8.2457E-02  6.5033E-02  4.6784E-02  3.5745E-02
   2   2.6473E-02  4.0315E-02  6.7891E-02  0.1054      0.1406      0.1548      0.1416      0.1083      7.4835E-02  5.5267E-02
   3   4.3011E-02  6.8274E-02  0.1211      0.1983      0.2767      0.3071      0.2782      0.2028      0.1322      9.3044E-02
   4   6.1947E-02  0.1032      0.1958      0.3473      0.5243      0.5853      0.5264      0.3535      0.2114      0.1395    
   5   7.0834E-02  0.1247      0.2595      0.5266      0.9409       1.037      0.9432      0.5333      0.2768      0.1667    
   6   5.3619E-02  9.6441E-02  0.2243      0.5888       1.675       1.691       1.677      0.5939      0.2374      0.1277    
   7   9.7243E-03 -1.9193E-03 -4.4068E-02 -0.1661     -0.5013      -1.596     -0.5003     -0.1638     -4.0538E-02  3.1820E-04
   8  -2.2326E-02 -7.6178E-02 -0.2551     -0.7902      -2.450      -8.653      -2.449     -0.7902     -0.2588     -9.5649E-02
   9  -1.3219E-02 -5.1038E-02 -0.1657     -0.4490      -1.068      -2.272      -1.067     -0.4484     -0.1674     -6.4100E-02
  10   1.7227E-02  1.7665E-02  2.2875E-02  8.1003E-02  0.4452      0.2887      0.4462      8.3657E-02  2.7879E-02  2.4950E-02
  11   3.6784E-02  5.5322E-02  9.8527E-02  0.1828      0.3212      0.3237      0.3227      0.1870      0.1081      7.5282E-02
  12   3.8233E-02  5.7925E-02  9.9115E-02  0.1615      0.2299      0.2482      0.2313      0.1657      0.1091      7.9129E-02
  13   2.9429E-02  4.3743E-02  7.2055E-02  0.1106      0.1470      0.1601      0.1481      0.1139      7.9791E-02  6.0021E-02
  14   1.9524E-02  2.8392E-02  4.5354E-02  6.7187E-02  8.6577E-02  9.4186E-02  8.7374E-02  6.9426E-02  5.0537E-02  3.9087E-02
  15   1.3684E-02  1.9542E-02  3.0516E-02  4.4213E-02  5.6022E-02  6.0770E-02  5.6596E-02  4.5814E-02  3.4172E-02  2.6957E-02

 HEAD WILL BE SAVED ON UNIT 1043 AT END OF TIME STEP   73, STRESS PERIOD    2


  VOLUME BUDGET FOR ENTIRE MODEL AT END OF TIME STEP   73, STRESS PERIOD   2
  ---------------------------------------------------------------------------------------------------

     CUMULATIVE VOLUME      L**3       RATES FOR THIS TIME STEP      L**3/T          PACKAGE NAME    
     ------------------                 ------------------------                     ----------------

           IN:                                      IN:
           ---                                      ---
              STO-SS =          24.9499                STO-SS =       1.5125E-02     STORAGE                          
              STO-SY =       59217.0076                STO-SY =          31.2683     STORAGE                          
                 WEL =           0.0000                   WEL =           0.0000     WEL-1                            
                 API =      165788.3055                   API =         202.4879     MAR                              
                 CHD =       2.8247E-08                   CHD =           0.0000     CHD_0                            

            TOTAL IN =      225030.2630              TOTAL IN =         233.7713

          OUT:                                     OUT:
          ----                                     ----
              STO-SS =          30.7122                STO-SS =       1.6035E-02     STORAGE                          
              STO-SY =       59211.2453                STO-SY =          31.2674     STORAGE                          
                 WEL =      165788.3055                   WEL =         202.4879     WEL-1                            
                 API =           0.0000                   API =           0.0000     MAR                              
                 CHD =       3.0388E-08                   CHD =           0.0000     CHD_0                            

           TOTAL OUT =      225030.2630             TOTAL OUT =         233.7713

            IN - OUT =       2.4184E-06              IN - OUT =       1.0157E-08

 PERCENT DISCREPANCY =           0.00     PERCENT DISCREPANCY =           0.00




         TIME SUMMARY AT END OF TIME STEP   73 IN STRESS PERIOD    2
                    SECONDS     MINUTES      HOURS       DAYS        YEARS
                    -----------------------------------------------------------
   TIME STEP LENGTH 8.64000E+05  14400.      240.00      10.000     2.73785E-02
 STRESS PERIOD TIME 6.30720E+07 1.05120E+06  17520.      730.00      1.9986    
         TOTAL TIME 6.31584E+07 1.05264E+06  17544.      731.00      2.0014    


end timestep


start timestep kper="2" kstp="74" mode="normal"

 UBDSV1 SAVING           STO-SS ON UNIT   1042 AT TIME STEP     74, STRESS PERIOD      2
 UBDSV1 SAVING           STO-SY ON UNIT   1042 AT TIME STEP     74, STRESS PERIOD      2
 UBDSV1 SAVING     FLOW-JA-FACE ON UNIT   1042 AT TIME STEP     74, STRESS PERIOD      2
 UBDSV06 SAVING       DATA-SPDIS IN MODEL GWF              PACKAGE NPF             CONNECTED TO MODEL GWF              PACKAGE NPF              ON UNIT   1042 AT TIME STEP     74, STRESS PERIOD      2
 UBDSV06 SAVING              WEL IN MODEL GWF              PACKAGE GWF             CONNECTED TO MODEL GWF              PACKAGE WEL-1            ON UNIT   1042 AT TIME STEP     74, STRESS PERIOD      2
 UBDSV06 SAVING              API IN MODEL GWF              PACKAGE GWF             CONNECTED TO MODEL GWF              PACKAGE MAR              ON UNIT   1042 AT TIME STEP     74, STRESS PERIOD      2
 UBDSV06 SAVING              CHD IN MODEL GWF              PACKAGE GWF             CONNECTED TO MODEL GWF              PACKAGE CHD_0            ON UNIT   1042 AT TIME STEP     74, STRESS PERIOD      2

    CALCULATED INTERCELL FLOW FOR PERIOD 2 STEP 74
(1,1,1): (1,1,2) 8.639816E-02 (1,2,1) 9.102910E-02
(1,1,2): (1,1,1) -8.639816E-02 (1,1,3) 0.166357 (1,2,2) 0.146607
(1,1,3): (1,1,2) -0.166357 (1,1,4) 0.215480 (1,2,3) 0.263077
(1,1,4): (1,1,3) -0.215480 (1,1,5) 0.192657 (1,2,4) 0.432485
(1,1,5): (1,1,4) -0.192657 (1,1,6) 7.868395E-02 (1,2,5) 0.601633
(1,1,6): (1,1,5) -7.868395E-02 (1,1,7) -7.108763E-02 (1,2,6) 0.669615
(1,1,7): (1,1,6) 7.108763E-02 (1,1,8) -0.178919 (1,2,7) 0.604929
(1,1,8): (1,1,7) 0.178919 (1,1,9) -0.187380 (1,2,8) 0.442098
(1,1,9): (1,1,8) 0.187380 (1,1,10) -0.113311 (1,2,9) 0.286779
(1,1,10): (1,1,9) 0.113311 (1,2,10) 0.200012
(1,2,1): (1,1,1) -9.102910E-02 (1,2,2) 0.141974 (1,3,1) 0.169178
(1,2,2): (1,1,2) -0.146607 (1,2,1) -0.141974 (1,2,3) 0.282849 (1,3,2) 0.285241
(1,2,3): (1,1,3) -0.263077 (1,2,2) -0.282849 (1,2,4) 0.384810 (1,3,3) 0.543213
(1,2,4): (1,1,4) -0.432485 (1,2,3) -0.384810 (1,2,5) 0.361413 (1,3,4) 0.953255
(1,2,5): (1,1,5) -0.601633 (1,2,4) -0.361413 (1,2,6) 0.146326 (1,3,5) 1.40522
(1,2,6): (1,1,6) -0.669615 (1,2,5) -0.146326 (1,2,7) -0.135444 (1,3,6) 1.57754
(1,2,7): (1,1,7) -0.604929 (1,2,6) 0.135444 (1,2,8) -0.341336 (1,3,7) 1.41111
(1,2,8): (1,1,8) -0.442098 (1,2,7) 0.341336 (1,2,9) -0.342549 (1,3,8) 0.970521
(1,2,9): (1,1,9) -0.286779 (1,2,8) 0.342549 (1,2,10) -0.200005 (1,3,9) 0.586618
(1,2,10): (1,1,10) -0.200012 (1,2,9) 0.200005 (1,3,10) 0.386463
(1,3,1): (1,2,1) -0.169178 (1,3,2) 0.258006 (1,4,1) 0.192337
(1,3,2): (1,2,2) -0.285241 (1,3,1) -0.258006 (1,3,3) 0.540815 (1,4,2) 0.355205
(1,3,3): (1,2,3) -0.543213 (1,3,2) -0.540815 (1,3,4) 0.794232 (1,4,3) 0.764050
(1,3,4): (1,2,4) -0.953255 (1,3,3) -0.794232 (1,3,5) 0.810873 (1,4,4) 1.54357
(1,3,5): (1,2,5) -1.40522 (1,3,4) -0.810873 (1,3,6) 0.316654 (1,4,5) 2.60815
(1,3,6): (1,2,6) -1.57754 (1,3,5) -0.316654 (1,3,7) -0.299923 (1,4,6) 2.94529
(1,3,7): (1,2,7) -1.41111 (1,3,6) 0.299923 (1,3,8) -0.779331 (1,4,7) 2.61443
(1,3,8): (1,2,8) -0.970521 (1,3,7) 0.779331 (1,3,9) -0.725558 (1,4,8) 1.56192
(1,3,9): (1,2,9) -0.586618 (1,3,8) 0.725558 (1,3,10) -0.399799 (1,4,9) 0.811729
(1,3,10): (1,2,10) -0.386463 (1,3,9) 0.399799 (1,4,10) 0.473913
(1,4,1): (1,3,1) -0.192337 (1,4,2) 0.420978 (1,5,1) 8.771878E-02
(1,4,2): (1,3,2) -0.355205 (1,4,1) -0.420978 (1,4,3) 0.950387 (1,5,2) 0.214257
(1,4,3): (1,3,3) -0.764050 (1,4,2) -0.950387 (1,4,4) 1.57397 (1,5,3) 0.647724
(1,4,4): (1,3,4) -1.54357 (1,4,3) -1.57397 (1,4,5) 1.86853 (1,5,4) 1.87965
(1,4,5): (1,3,5) -2.60815 (1,4,4) -1.86853 (1,4,6) 0.647198 (1,5,5) 4.54853
(1,4,6): (1,3,6) -2.94529 (1,4,5) -0.647198 (1,4,7) -0.624240 (1,5,6) 4.97517
(1,4,7): (1,3,7) -2.61443 (1,4,6) 0.624240 (1,4,8) -1.82453 (1,5,7) 4.55115
(1,4,8): (1,3,8) -1.56192 (1,4,7) 1.82453 (1,4,9) -1.47515 (1,5,8) 1.88646
(1,4,9): (1,3,9) -0.811729 (1,4,8) 1.47515 (1,4,10) -0.737376 (1,5,9) 0.666720
(1,4,10): (1,3,10) -0.473913 (1,4,9) 0.737376 (1,5,10) 0.272017
(1,5,1): (1,4,1) -8.771878E-02 (1,5,2) 0.547926 (1,6,1) -0.179350
(1,5,2): (1,4,2) -0.214257 (1,5,1) -0.547926 (1,5,3) 1.38688 (1,6,2) -0.294479
(1,5,3): (1,4,3) -0.647724 (1,5,2) -1.38688 (1,5,4) 2.81616 (1,6,3) -0.373379
(1,5,4): (1,4,4) -1.87965 (1,5,3) -2.81616 (1,5,5) 4.53716 (1,6,4) 0.642288
(1,5,5): (1,4,5) -4.54853 (1,5,4) -4.53716 (1,5,6) 1.06142 (1,6,5) 8.55391
(1,5,6): (1,4,6) -4.97517 (1,5,5) -1.06142 (1,5,7) -1.03582 (1,6,6) 7.63329
(1,5,7): (1,4,7) -4.55115 (1,5,6) 1.03582 (1,5,8) -4.48785 (1,6,7) 8.54893
(1,5,8): (1,4,8) -1.88646 (1,5,7) 4.48785 (1,5,9) -2.70375 (1,6,8) 0.625453
(1,5,9): (1,4,9) -0.666720 (1,5,8) 2.70375 (1,5,10) -1.13381 (1,6,9) -0.419552
(1,5,10): (1,4,10) -0.272017 (1,5,9) 1.13381 (1,6,10) -0.408048
(1,6,1): (1,5,1) 0.179350 (1,6,2) 0.432515 (1,7,1) -0.449365
(1,6,2): (1,5,2) 0.294479 (1,6,1) -0.432515 (1,6,3) 1.30725 (1,7,2) -1.00424
(1,6,3): (1,5,3) 0.373379 (1,6,2) -1.30725 (1,6,4) 3.85999 (1,7,3) -2.75999
(1,6,4): (1,5,4) -0.642288 (1,6,3) -3.85999 (1,6,5) 12.6866 (1,7,4) -8.01448
(1,6,5): (1,5,5) -8.55391 (1,6,4) -12.6866 (1,6,6) 0.191565 (1,7,5) -25.4358
(1,6,6): (1,5,6) -7.63329 (1,6,5) -0.191565 (1,6,7) -0.170741 (1,7,6) -38.4538
(1,6,7): (1,5,7) -8.54893 (1,6,6) 0.170741 (1,6,8) -12.6475 (1,7,7) -25.4481
(1,6,8): (1,5,8) -0.625453 (1,6,7) 12.6475 (1,6,9) -3.77679 (1,7,8) -8.04964
(1,6,9): (1,5,9) 0.419552 (1,6,8) 3.77679 (1,6,10) -1.12226 (1,7,9) -2.86375
(1,6,10): (1,5,10) 0.408048 (1,6,9) 1.12226 (1,7,10) -1.30566
(1,7,1): (1,6,1) 0.449365 (1,7,2) -0.119403 (1,8,1) -0.327295
(1,7,2): (1,6,2) 1.00424 (1,7,1) 0.119403 (1,7,3) -0.426089 (1,8,2) -0.751921
(1,7,3): (1,6,3) 2.75999 (1,7,2) 0.426089 (1,7,4) -1.21846 (1,8,3) -2.11596
(1,7,4): (1,6,4) 8.01448 (1,7,3) 1.21846 (1,7,5) -3.29473 (1,8,4) -6.15833
(1,7,5): (1,6,5) 25.4358 (1,7,4) 3.29473 (1,7,6) -10.3898 (1,8,5) -18.5282
(1,7,6): (1,6,6) 38.4538 (1,7,5) 10.3898 (1,7,7) 10.4010 (1,8,6) -59.3101
(1,7,7): (1,6,7) 25.4481 (1,7,6) -10.4010 (1,7,8) 3.30821 (1,8,7) -18.5366
(1,7,8): (1,6,8) 8.04964 (1,7,7) -3.30821 (1,7,9) 1.23077 (1,8,8) -6.18304
(1,7,9): (1,6,9) 2.86375 (1,7,8) -1.23077 (1,7,10) 0.411873 (1,8,9) -2.19018
(1,7,10): (1,6,10) 1.30566 (1,7,9) -0.411873 (1,8,10) -0.972786
(1,8,1): (1,7,1) 0.327295 (1,8,2) -0.543146 (1,9,1) 8.895503E-02
(1,8,2): (1,7,2) 0.751921 (1,8,1) 0.543146 (1,8,3) -1.78565 (1,9,2) 0.246090
(1,8,3): (1,7,3) 2.11596 (1,8,2) 1.78565 (1,8,4) -5.22354 (1,9,3) 0.870665
(1,8,4): (1,7,4) 6.15833 (1,8,3) 5.22354 (1,8,5) -15.2789 (1,9,4) 3.24000
(1,8,5): (1,7,5) 18.5282 (1,8,4) 15.2789 (1,8,6) -46.7958 (1,9,5) 12.3041
(1,8,6): (1,7,6) 59.3101 (1,8,5) 46.7958 (1,8,7) 46.8013 (1,9,6) 49.2144
(1,8,7): (1,7,7) 18.5366 (1,8,6) -46.8013 (1,8,8) 15.2751 (1,9,7) 12.3060
(1,8,8): (1,7,8) 6.18304 (1,8,7) -15.2751 (1,8,9) 5.18426 (1,9,8) 3.24540
(1,8,9): (1,7,9) 2.19018 (1,8,8) -5.18426 (1,8,10) 1.62239 (1,9,9) 0.888754
(1,8,10): (1,7,10) 0.972786 (1,8,9) -1.62239 (1,9,10) 0.308088
(1,9,1): (1,8,1) -8.895503E-02 (1,9,2) -0.385541 (1,10,1) 0.307832
(1,9,2): (1,8,2) -0.246090 (1,9,1) 0.385541 (1,9,3) -1.15524 (1,10,2) 0.691122
(1,9,3): (1,8,3) -0.870665 (1,9,2) 1.15524 (1,9,4) -2.80485 (1,10,3) 1.89102
(1,9,4): (1,8,4) -3.24000 (1,9,3) 2.80485 (1,9,5) -5.92272 (1,10,4) 5.33745
(1,9,5): (1,8,5) -12.3041 (1,9,4) 5.92272 (1,9,6) -10.7535 (1,10,5) 15.7738
(1,9,6): (1,8,6) -49.2144 (1,9,5) 10.7535 (1,9,7) 10.7589 (1,10,6) 26.3034
(1,9,7): (1,8,7) -12.3060 (1,9,6) -10.7589 (1,9,8) 5.92311 (1,10,7) 15.7809
(1,9,8): (1,8,8) -3.24540 (1,9,7) -5.92311 (1,9,9) 2.77960 (1,10,8) 5.36018
(1,9,9): (1,8,9) -0.888754 (1,9,8) -2.77960 (1,9,10) 1.03736 (1,10,9) 1.96068
(1,9,10): (1,8,10) -0.308088 (1,9,9) -1.03736 (1,10,10) 0.896889
(1,10,1): (1,9,1) -0.307832 (1,10,2) -3.413344E-03 (1,11,1) 0.201701
(1,10,2): (1,9,2) -0.691122 (1,10,1) 3.413344E-03 (1,10,3) 3.597946E-02 (1,11,2) 0.386480
(1,10,3): (1,9,3) -1.89102 (1,10,2) -3.597946E-02 (1,10,4) 0.561330 (1,11,3) 0.776393
(1,10,4): (1,9,4) -5.33745 (1,10,3) -0.561330 (1,10,5) 3.76955 (1,11,4) 1.05638
(1,10,5): (1,9,5) -15.7738 (1,10,4) -3.76955 (1,10,6) -1.64217 (1,11,5) -1.26121
(1,10,6): (1,9,6) -26.3034 (1,10,5) 1.64217 (1,10,7) 1.65336 (1,11,6) 0.396171
(1,10,7): (1,9,7) -15.7809 (1,10,6) -1.65336 (1,10,8) -3.75326 (1,11,7) -1.25641
(1,10,8): (1,9,8) -5.36018 (1,10,7) 3.75326 (1,10,9) -0.538998 (1,11,8) 1.07280
(1,10,9): (1,9,9) -1.96068 (1,10,8) 0.538998 (1,10,10) -1.676765E-02 (1,11,9) 0.824917
(1,10,10): (1,9,10) -0.896889 (1,10,9) 1.676765E-02 (1,11,10) 0.517929
(1,11,1): (1,10,1) -0.201701 (1,11,2) 0.180992 (1,12,1) 1.914593E-02
(1,11,2): (1,10,2) -0.386480 (1,11,1) -0.180992 (1,11,3) 0.424552 (1,12,2) 3.379661E-02
(1,11,3): (1,10,3) -0.776393 (1,11,2) -0.424552 (1,11,4) 0.840753 (1,12,3) 1.963116E-02
(1,11,4): (1,10,4) -1.05638 (1,11,3) -0.840753 (1,11,5) 1.40874 (1,12,4) -0.194551
(1,11,5): (1,10,5) 1.26121 (1,11,4) -1.40874 (1,11,6) 1.954978E-02 (1,12,5) -0.910142
(1,11,6): (1,10,6) -0.396171 (1,11,5) -1.954978E-02 (1,11,7) -3.782706E-03 (1,12,6) -0.743806
(1,11,7): (1,10,7) 1.25641 (1,11,6) 3.782706E-03 (1,11,8) -1.38116 (1,12,7) -0.910251
(1,11,8): (1,10,8) -1.07280 (1,11,7) 1.38116 (1,11,9) -0.786213 (1,12,8) -0.193690
(1,11,9): (1,10,9) -0.824917 (1,11,8) 0.786213 (1,11,10) -0.322253 (1,12,9) 2.448784E-02
(1,11,10): (1,10,10) -0.517929 (1,11,9) 0.322253 (1,12,10) 4.924149E-02
(1,12,1): (1,11,1) -1.914593E-02 (1,12,2) 0.195666 (1,13,1) -8.635067E-02
(1,12,2): (1,11,2) -3.379661E-02 (1,12,1) -0.195666 (1,12,3) 0.410331 (1,13,2) -0.138457
(1,12,3): (1,11,3) -1.963116E-02 (1,12,2) -0.410331 (1,12,4) 0.625238 (1,13,3) -0.264639
(1,12,4): (1,11,4) 0.194551 (1,12,3) -0.625238 (1,12,5) 0.689805 (1,13,4) -0.502747
(1,12,5): (1,11,5) 0.910142 (1,12,4) -0.689805 (1,12,6) 0.184752 (1,13,5) -0.826715
(1,12,6): (1,11,6) 0.743806 (1,12,5) -0.184752 (1,12,7) -0.169070 (1,13,6) -0.879128
(1,12,7): (1,11,7) 0.910251 (1,12,6) 0.169070 (1,12,8) -0.661436 (1,13,7) -0.830121
(1,12,8): (1,11,8) 0.193690 (1,12,7) 0.661436 (1,12,9) -0.566794 (1,13,8) -0.512197
(1,12,9): (1,11,9) -2.448784E-02 (1,12,8) 0.566794 (1,12,10) -0.297433 (1,13,9) -0.286818
(1,12,10): (1,11,10) -4.924149E-02 (1,12,9) 0.297433 (1,13,10) -0.186868
(1,13,1): (1,12,1) 8.635067E-02 (1,13,2) 0.143529 (1,14,1) -9.937034E-02
(1,13,2): (1,12,2) 0.138457 (1,13,1) -0.143529 (1,13,3) 0.283970 (1,14,2) -0.153174
(1,13,3): (1,12,3) 0.264639 (1,13,2) -0.283970 (1,13,4) 0.386850 (1,14,3) -0.265707
(1,13,4): (1,12,4) 0.502747 (1,13,3) -0.386850 (1,13,5) 0.366256 (1,14,4) -0.432228
(1,13,5): (1,12,5) 0.826715 (1,13,4) -0.366256 (1,13,6) 0.132677 (1,14,5) -0.603216
(1,13,6): (1,12,6) 0.879128 (1,13,5) -0.132677 (1,13,7) -0.120386 (1,14,6) -0.659311
(1,13,7): (1,12,7) 0.830121 (1,13,6) 0.120386 (1,13,8) -0.344019 (1,14,7) -0.607067
(1,13,8): (1,12,8) 0.512197 (1,13,7) 0.344019 (1,13,9) -0.341297 (1,14,8) -0.443172
(1,13,9): (1,12,9) 0.286818 (1,13,8) 0.341297 (1,13,10) -0.197473 (1,14,9) -0.291698
(1,13,10): (1,12,10) 0.186868 (1,13,9) 0.197473 (1,14,10) -0.209245
(1,14,1): (1,13,1) 9.937034E-02 (1,14,2) 8.973059E-02 (1,15,1) -5.907947E-02
(1,14,2): (1,13,2) 0.153174 (1,14,1) -8.973059E-02 (1,14,3) 0.171418 (1,15,2) -8.900643E-02
(1,14,3): (1,13,3) 0.265707 (1,14,2) -0.171418 (1,14,4) 0.220402 (1,15,3) -0.148568
(1,14,4): (1,13,4) 0.432228 (1,14,3) -0.220402 (1,14,5) 0.195658 (1,15,4) -0.229668
(1,14,5): (1,13,5) 0.603216 (1,14,4) -0.195658 (1,14,6) 7.686456E-02 (1,15,5) -0.305463
(1,14,6): (1,13,6) 0.659311 (1,14,5) -7.686456E-02 (1,14,7) -6.841011E-02 (1,15,6) -0.334124
(1,14,7): (1,13,7) 0.607067 (1,14,6) 6.841011E-02 (1,14,8) -0.180539 (1,15,7) -0.307786
(1,14,8): (1,13,8) 0.443172 (1,14,7) 0.180539 (1,14,9) -0.189973 (1,15,8) -0.236273
(1,14,9): (1,13,9) 0.291698 (1,14,8) 0.189973 (1,14,10) -0.115097 (1,15,9) -0.164163
(1,14,10): (1,13,10) 0.209245 (1,14,9) 0.115097 (1,15,10) -0.122143
(1,15,1): (1,14,1) 5.907947E-02 (1,15,2) 5.980342E-02
(1,15,2): (1,14,2) 8.900643E-02 (1,15,1) -5.980342E-02 (1,15,3) 0.111843
(1,15,3): (1,14,3) 0.148568 (1,15,2) -0.111843 (1,15,4) 0.139309
(1,15,4): (1,14,4) 0.229668 (1,15,3) -0.139309 (1,15,5) 0.119943
(1,15,5): (1,14,5) 0.305463 (1,15,4) -0.119943 (1,15,6) 4.827559E-02
(1,15,6): (1,14,6) 0.334124 (1,15,5) -4.827559E-02 (1,15,7) -4.214021E-02
(1,15,7): (1,14,7) 0.307786 (1,15,6) 4.214021E-02 (1,15,8) -0.109115
(1,15,8): (1,14,8) 0.236273 (1,15,7) 0.109115 (1,15,9) -0.117896
(1,15,9): (1,14,9) 0.164163 (1,15,8) 0.117896 (1,15,10) -7.309758E-02
(1,15,10): (1,14,10) 0.122143 (1,15,9) 7.309758E-02

 WEL PACKAGE (WEL-1) FLOW RATES   PERIOD      2   STEP       74
 ----------------------------------------------------------------------------------------
   NUMBER   CELLID                    RATE       NAME                                    
 ----------------------------------------------------------------------------------------
     1      (1,8,6)              -202.31531      WEL                                     
 ----------------------------------------------------------------------------------------




 API PACKAGE (MAR) FLOW RATES   PERIOD      2   STEP       74
 -----------------------------------------------
   NUMBER   CELLID                    RATE      
 -----------------------------------------------
     1      (1,6,5)               46.666667     
     2      (1,6,6)               46.666667     
     3      (1,6,7)               46.666667     
     4      (1,10,5)              20.771769     
     5      (1,10,6)              20.771769     
     6      (1,10,7)              20.771769     
 -----------------------------------------------



1
  HEAD IN LAYER   1 AT END OF TIME STEP  74 IN STRESS PERIOD    2
  ---------------------------------------------------------------------------

            1           2           3           4           5           6           7           8           9          10
 ........................................................................................................................
   1   1.8495E-02  2.7112E-02  4.3675E-02  6.5084E-02  8.4188E-02  9.1985E-02  8.4941E-02  6.7200E-02  4.8587E-02  3.7311E-02
   2   2.7573E-02  4.1711E-02  6.9800E-02  0.1079      0.1435      0.1579      0.1446      0.1109      7.7046E-02  5.7198E-02
   3   4.4416E-02  7.0037E-02  0.1235      0.2013      0.2802      0.3109      0.2818      0.2060      0.1349      9.5479E-02
   4   6.3528E-02  0.1052      0.1984      0.3504      0.5279      0.5890      0.5301      0.3568      0.2144      0.1422    
   5   7.2237E-02  0.1263      0.2615      0.5290      0.9436       1.040      0.9459      0.5359      0.2793      0.1690    
   6   5.4431E-02  9.7266E-02  0.2251      0.5896       1.676       1.693       1.678      0.5949      0.2384      0.1288    
   7   9.7376E-03 -2.1910E-03 -4.4809E-02 -0.1672     -0.5023      -1.596     -0.5012     -0.1649     -4.1264E-02 -7.6602E-05
   8  -2.2960E-02 -7.7400E-02 -0.2574     -0.7935      -2.453      -8.654      -2.453     -0.7935     -0.2612     -9.7356E-02
   9  -1.4052E-02 -5.2660E-02 -0.1688     -0.4541      -1.075      -2.279      -1.074     -0.4536     -0.1708     -6.6341E-02
  10   1.6680E-02  1.6339E-02  1.9930E-02  7.5642E-02  0.4368      0.2795      0.4379      7.8294E-02  2.4813E-02  2.3140E-02
  11   3.6776E-02  5.4777E-02  9.6825E-02  0.1794      0.3160      0.3179      0.3175      0.1836      0.1064      7.4550E-02
  12   3.8683E-02  5.8137E-02  9.8769E-02  0.1603      0.2278      0.2458      0.2293      0.1646      0.1089      7.9435E-02
  13   3.0081E-02  4.4371E-02  7.2563E-02  0.1108      0.1469      0.1600      0.1481      0.1142      8.0485E-02  6.0896E-02
  14   2.0174E-02  2.9121E-02  4.6184E-02  6.8075E-02  8.7471E-02  9.5086E-02  8.8309E-02  7.0413E-02  5.1549E-02  4.0098E-02
  15   1.4278E-02  2.0246E-02  3.1396E-02  4.5264E-02  5.7190E-02  6.1988E-02  5.7800E-02  4.6951E-02  3.5216E-02  2.7932E-02

 HEAD WILL BE SAVED ON UNIT 1043 AT END OF TIME STEP   74, STRESS PERIOD    2


  VOLUME BUDGET FOR ENTIRE MODEL AT END OF TIME STEP   74, STRESS PERIOD   2
  ---------------------------------------------------------------------------------------------------

     CUMULATIVE VOLUME      L**3       RATES FOR THIS TIME STEP      L**3/T          PACKAGE NAME    
     ------------------                 ------------------------                     ----------------

           IN:                                      IN:
           ---                                      ---
              STO-SS =          25.0997                STO-SS =       1.4975E-02     STORAGE                          
              STO-SY =       59526.5550                STO-SY =          30.9547     STORAGE                          
                 WEL =           0.0000                   WEL =           0.0000     WEL-1                            
                 API =      167811.4586                   API =         202.3153     MAR                              
                 CHD =       2.8247E-08                   CHD =           0.0000     CHD_0                            

            TOTAL IN =      227363.1133              TOTAL IN =         233.2850

          OUT:                                     OUT:
          ----                                     ----
              STO-SS =          30.8710                STO-SS =       1.5875E-02     STORAGE                          
              STO-SY =       59520.7837                STO-SY =          30.9538     STORAGE                          
                 WEL =      167811.4586                   WEL =         202.3153     WEL-1                            
                 API =           0.0000                   API =           0.0000     MAR                              
                 CHD =       3.0388E-08                   CHD =           0.0000     CHD_0                            

           TOTAL OUT =      227363.1133             TOTAL OUT =         233.2850

            IN - OUT =       2.5207E-06              IN - OUT =       1.0227E-08

 PERCENT DISCREPANCY =           0.00     PERCENT DISCREPANCY =           0.00




         TIME SUMMARY AT END OF TIME STEP   74 IN STRESS PERIOD    2
                    SECONDS     MINUTES      HOURS       DAYS        YEARS
                    -----------------------------------------------------------
   TIME STEP LENGTH 8.64000E+05  14400.      240.00      10.000     2.73785E-02
 STRESS PERIOD TIME 6.39360E+07 1.06560E+06  17760.      740.00      2.0260    
         TOTAL TIME 6.40224E+07 1.06704E+06  17784.      741.00      2.0287    


end timestep


start timestep kper="2" kstp="75" mode="normal"

 UBDSV1 SAVING           STO-SS ON UNIT   1042 AT TIME STEP     75, STRESS PERIOD      2
 UBDSV1 SAVING           STO-SY ON UNIT   1042 AT TIME STEP     75, STRESS PERIOD      2
 UBDSV1 SAVING     FLOW-JA-FACE ON UNIT   1042 AT TIME STEP     75, STRESS PERIOD      2
 UBDSV06 SAVING       DATA-SPDIS IN MODEL GWF              PACKAGE NPF             CONNECTED TO MODEL GWF              PACKAGE NPF              ON UNIT   1042 AT TIME STEP     75, STRESS PERIOD      2
 UBDSV06 SAVING              WEL IN MODEL GWF              PACKAGE GWF             CONNECTED TO MODEL GWF              PACKAGE WEL-1            ON UNIT   1042 AT TIME STEP     75, STRESS PERIOD      2
 UBDSV06 SAVING              API IN MODEL GWF              PACKAGE GWF             CONNECTED TO MODEL GWF              PACKAGE MAR              ON UNIT   1042 AT TIME STEP     75, STRESS PERIOD      2
 UBDSV06 SAVING              CHD IN MODEL GWF              PACKAGE GWF             CONNECTED TO MODEL GWF              PACKAGE CHD_0            ON UNIT   1042 AT TIME STEP     75, STRESS PERIOD      2

    CALCULATED INTERCELL FLOW FOR PERIOD 2 STEP 75
(1,1,1): (1,1,2) 8.886436E-02 (1,2,1) 9.314297E-02
(1,1,2): (1,1,1) -8.886436E-02 (1,1,3) 0.170662 (1,2,2) 0.149221
(1,1,3): (1,1,2) -0.170662 (1,1,4) 0.220394 (1,2,3) 0.266532
(1,1,4): (1,1,3) -0.220394 (1,1,5) 0.196603 (1,2,4) 0.436853
(1,1,5): (1,1,4) -0.196603 (1,1,6) 8.031966E-02 (1,2,5) 0.606704
(1,1,6): (1,1,5) -8.031966E-02 (1,1,7) -7.222590E-02 (1,2,6) 0.674987
(1,1,7): (1,1,6) 7.222590E-02 (1,1,8) -0.182108 (1,2,7) 0.610125
(1,1,8): (1,1,7) 0.182108 (1,1,9) -0.191028 (1,2,8) 0.446770
(1,1,9): (1,1,8) 0.191028 (1,1,10) -0.115685 (1,2,9) 0.290826
(1,1,10): (1,1,9) 0.115685 (1,2,10) 0.203635
(1,2,1): (1,1,1) -9.314297E-02 (1,2,2) 0.144940 (1,3,1) 0.172185
(1,2,2): (1,1,2) -0.149221 (1,2,1) -0.144940 (1,2,3) 0.287997 (1,3,2) 0.288852
(1,2,3): (1,1,3) -0.266532 (1,2,2) -0.287997 (1,2,4) 0.390639 (1,3,3) 0.547799
(1,2,4): (1,1,4) -0.436853 (1,2,3) -0.390639 (1,2,5) 0.366061 (1,3,4) 0.958837
(1,2,5): (1,1,5) -0.606704 (1,2,4) -0.366061 (1,2,6) 0.148258 (1,3,5) 1.41152
(1,2,6): (1,1,6) -0.674987 (1,2,5) -0.148258 (1,2,7) -0.136754 (1,3,6) 1.58418
(1,2,7): (1,1,7) -0.610125 (1,2,6) 0.136754 (1,2,8) -0.345046 (1,3,7) 1.41760
(1,2,8): (1,1,8) -0.446770 (1,2,7) 0.345046 (1,2,9) -0.346821 (1,3,8) 0.976548
(1,2,9): (1,1,9) -0.290826 (1,2,8) 0.346821 (1,2,10) -0.202800 (1,3,9) 0.592045
(1,2,10): (1,1,10) -0.203635 (1,2,9) 0.202800 (1,3,10) 0.391461
(1,3,1): (1,2,1) -0.172185 (1,3,2) 0.261576 (1,4,1) 0.194027
(1,3,2): (1,2,2) -0.288852 (1,3,1) -0.261576 (1,3,3) 0.546943 (1,4,2) 0.356929
(1,3,3): (1,2,3) -0.547799 (1,3,2) -0.546943 (1,3,4) 0.801060 (1,4,3) 0.765721
(1,3,4): (1,2,4) -0.958837 (1,3,3) -0.801060 (1,3,5) 0.816242 (1,4,4) 1.54501
(1,3,5): (1,2,5) -1.41152 (1,3,4) -0.816242 (1,3,6) 0.318909 (1,4,5) 2.60931
(1,3,6): (1,2,6) -1.58418 (1,3,5) -0.318909 (1,3,7) -0.301371 (1,4,6) 2.94644
(1,3,7): (1,2,7) -1.41760 (1,3,6) 0.301371 (1,3,8) -0.783499 (1,4,7) 2.61572
(1,3,8): (1,2,8) -0.976548 (1,3,7) 0.783499 (1,3,9) -0.730426 (1,4,8) 1.56365
(1,3,9): (1,2,9) -0.592045 (1,3,8) 0.730426 (1,3,10) -0.403018 (1,4,9) 0.813869
(1,3,10): (1,2,10) -0.391461 (1,3,9) 0.403018 (1,4,10) 0.476273
(1,4,1): (1,3,1) -0.194027 (1,4,2) 0.424585 (1,5,1) 8.585755E-02
(1,4,2): (1,3,2) -0.356929 (1,4,1) -0.424585 (1,4,3) 0.956478 (1,5,2) 0.211267
(1,4,3): (1,3,3) -0.765721 (1,4,2) -0.956478 (1,4,4) 1.58061 (1,5,3) 0.642725
(1,4,4): (1,3,4) -1.54501 (1,4,3) -1.58061 (1,4,5) 1.87365 (1,5,4) 1.87236
(1,4,5): (1,3,5) -2.60931 (1,4,4) -1.87365 (1,4,6) 0.649454 (1,5,5) 4.53934
(1,4,6): (1,3,6) -2.94644 (1,4,5) -0.649454 (1,4,7) -0.625555 (1,5,6) 4.96561
(1,4,7): (1,3,7) -2.61572 (1,4,6) 0.625555 (1,4,8) -1.82829 (1,5,7) 4.54191
(1,4,8): (1,3,8) -1.56365 (1,4,7) 1.82829 (1,4,9) -1.47963 (1,5,8) 1.87898
(1,4,9): (1,3,9) -0.813869 (1,4,8) 1.47963 (1,4,10) -0.740379 (1,5,9) 0.661199
(1,4,10): (1,3,10) -0.476273 (1,4,9) 0.740379 (1,5,10) 0.267812
(1,5,1): (1,4,1) -8.585755E-02 (1,5,2) 0.550407 (1,6,1) -0.185347
(1,5,2): (1,4,2) -0.211267 (1,5,1) -0.550407 (1,5,3) 1.39098 (1,6,2) -0.302835
(1,5,3): (1,4,3) -0.642725 (1,5,2) -1.39098 (1,5,4) 2.82061 (1,6,3) -0.385681
(1,5,4): (1,4,4) -1.87236 (1,5,3) -2.82061 (1,5,5) 4.54066 (1,6,4) 0.626075
(1,5,5): (1,4,5) -4.53934 (1,5,4) -4.54066 (1,5,6) 1.06336 (1,6,5) 8.53474
(1,5,6): (1,4,6) -4.96561 (1,5,5) -1.06336 (1,5,7) -1.03686 (1,6,6) 7.61438
(1,5,7): (1,4,7) -4.54191 (1,5,6) 1.03686 (1,5,8) -4.49010 (1,6,7) 8.52949
(1,5,8): (1,4,8) -1.87898 (1,5,7) 4.49010 (1,5,9) -2.70636 (1,6,8) 0.608504
(1,5,9): (1,4,9) -0.661199 (1,5,8) 2.70636 (1,5,10) -1.13552 (1,6,9) -0.433513
(1,5,10): (1,4,10) -0.267812 (1,5,9) 1.13552 (1,6,10) -0.419709
(1,6,1): (1,5,1) 0.185347 (1,6,2) 0.432637 (1,7,1) -0.457399
(1,6,2): (1,5,2) 0.302835 (1,6,1) -0.432637 (1,6,3) 1.30738 (1,7,2) -1.01526
(1,6,3): (1,5,3) 0.385681 (1,6,2) -1.30738 (1,6,4) 3.86049 (1,7,3) -2.77598
(1,6,4): (1,5,4) -0.626075 (1,6,3) -3.86049 (1,6,5) 12.6883 (1,7,4) -8.03526
(1,6,5): (1,5,5) -8.53474 (1,6,4) -12.6883 (1,6,6) 0.193607 (1,7,5) -25.4587
(1,6,6): (1,5,6) -7.61438 (1,6,5) -0.193607 (1,6,7) -0.172139 (1,7,6) -38.4734
(1,6,7): (1,5,7) -8.52949 (1,6,6) 0.172139 (1,6,8) -12.6484 (1,7,7) -25.4714
(1,6,8): (1,5,8) -0.608504 (1,6,7) 12.6484 (1,6,9) -3.77638 (1,7,8) -8.07141
(1,6,9): (1,5,9) 0.433513 (1,6,8) 3.77638 (1,6,10) -1.12165 (1,7,9) -2.88193
(1,6,10): (1,5,10) 0.419709 (1,6,9) 1.12165 (1,7,10) -1.32100
(1,7,1): (1,6,1) 0.457399 (1,7,2) -0.122200 (1,8,1) -0.333778
(1,7,2): (1,6,2) 1.01526 (1,7,1) 0.122200 (1,7,3) -0.430640 (1,8,2) -0.761330
(1,7,3): (1,6,3) 2.77598 (1,7,2) 0.430640 (1,7,4) -1.22178 (1,8,3) -2.13065
(1,7,4): (1,6,4) 8.03526 (1,7,3) 1.22178 (1,7,5) -3.29274 (1,8,4) -6.17871
(1,7,5): (1,6,5) 25.4587 (1,7,4) 3.29274 (1,7,6) -10.3831 (1,8,5) -18.5495
(1,7,6): (1,6,6) 38.4734 (1,7,5) 10.3831 (1,7,7) 10.3947 (1,8,6) -59.3133
(1,7,7): (1,6,7) 25.4714 (1,7,6) -10.3947 (1,7,8) 3.30638 (1,8,7) -18.5582
(1,7,8): (1,6,8) 8.07141 (1,7,7) -3.30638 (1,7,9) 1.23376 (1,8,8) -6.20418
(1,7,9): (1,6,9) 2.88193 (1,7,8) -1.23376 (1,7,10) 0.415035 (1,8,9) -2.20661
(1,7,10): (1,6,10) 1.32100 (1,7,9) -0.415035 (1,8,10) -0.985773
(1,8,1): (1,7,1) 0.333778 (1,8,2) -0.548847 (1,9,1) 8.688245E-02
(1,8,2): (1,7,2) 0.761330 (1,8,1) 0.548847 (1,8,3) -1.79540 (1,9,2) 0.241999
(1,8,3): (1,7,3) 2.13065 (1,8,2) 1.79540 (1,8,4) -5.23201 (1,9,3) 0.861653
(1,8,4): (1,7,4) 6.17871 (1,8,3) 5.23201 (1,8,5) -15.2747 (1,9,4) 3.22117
(1,8,5): (1,7,5) 18.5495 (1,8,4) 15.2747 (1,8,6) -46.7571 (1,9,5) 12.2653
(1,8,6): (1,7,6) 59.3133 (1,8,5) 46.7571 (1,8,7) 46.7626 (1,9,6) 49.1253
(1,8,7): (1,7,7) 18.5582 (1,8,6) -46.7626 (1,8,8) 15.2706 (1,9,7) 12.2672
(1,8,8): (1,7,8) 6.20418 (1,8,7) -15.2706 (1,8,9) 5.19136 (1,9,8) 3.22641
(1,8,9): (1,7,9) 2.20661 (1,8,8) -5.19136 (1,8,10) 1.62885 (1,9,9) 0.879233
(1,8,10): (1,7,10) 0.985773 (1,8,9) -1.62885 (1,9,10) 0.302603
(1,9,1): (1,8,1) -8.688245E-02 (1,9,2) -0.393251 (1,10,1) 0.310565
(1,9,2): (1,8,2) -0.241999 (1,9,1) 0.393251 (1,9,3) -1.16984 (1,10,2) 0.693843
(1,9,3): (1,8,3) -0.861653 (1,9,2) 1.16984 (1,9,4) -2.82262 (1,10,3) 1.89225
(1,9,4): (1,8,4) -3.22117 (1,9,3) 2.82262 (1,9,5) -5.93534 (1,10,4) 5.33184
(1,9,5): (1,8,5) -12.2653 (1,9,4) 5.93534 (1,9,6) -10.7471 (1,10,5) 15.7452
(1,9,6): (1,8,6) -49.1253 (1,9,5) 10.7471 (1,9,7) 10.7524 (1,10,6) 26.2580
(1,9,7): (1,8,7) -12.2672 (1,9,6) -10.7524 (1,9,8) 5.93528 (1,10,7) 15.7524
(1,9,8): (1,8,8) -3.22641 (1,9,7) -5.93528 (1,9,9) 2.79568 (1,10,8) 5.35495
(1,9,9): (1,8,9) -0.879233 (1,9,8) -2.79568 (1,9,10) 1.04779 (1,10,9) 1.96268
(1,9,10): (1,8,10) -0.302603 (1,9,9) -1.04779 (1,10,10) 0.900821
(1,10,1): (1,9,1) -0.310565 (1,10,2) -1.111702E-02 (1,11,1) 0.207063
(1,10,2): (1,9,2) -0.693843 (1,10,1) 1.111702E-02 (1,10,3) 2.004950E-02 (1,11,2) 0.394151
(1,10,3): (1,9,3) -1.89225 (1,10,2) -2.004950E-02 (1,10,4) 0.537315 (1,11,3) 0.788453
(1,10,4): (1,9,4) -5.33184 (1,10,3) -0.537315 (1,10,5) 3.73609 (1,11,4) 1.07520
(1,10,5): (1,9,5) -15.7452 (1,10,4) -3.73609 (1,10,6) -1.64922 (1,11,5) -1.22814
(1,10,6): (1,9,6) -26.2580 (1,10,5) 1.64922 (1,10,7) 1.66054 (1,11,6) 0.429623
(1,10,7): (1,9,7) -15.7524 (1,10,6) -1.66054 (1,10,8) -3.72001 (1,11,7) -1.22313
(1,10,8): (1,9,8) -5.35495 (1,10,7) 3.72001 (1,10,9) -0.516242 (1,11,8) 1.09222
(1,10,9): (1,9,9) -1.96268 (1,10,8) 0.516242 (1,10,10) -4.503535E-03 (1,11,9) 0.838404
(1,10,10): (1,9,10) -0.900821 (1,10,9) 4.503535E-03 (1,11,10) 0.528547
(1,11,1): (1,10,1) -0.207063 (1,11,2) 0.175568 (1,12,1) 2.380619E-02
(1,11,2): (1,10,2) -0.394151 (1,11,1) -0.175568 (1,11,3) 0.412904 (1,12,2) 4.140127E-02
(1,11,3): (1,10,3) -0.788453 (1,11,2) -0.412904 (1,11,4) 0.823377 (1,12,3) 3.313186E-02
(1,11,4): (1,10,4) -1.07520 (1,11,3) -0.823377 (1,11,5) 1.39018 (1,12,4) -0.172613
(1,11,5): (1,10,5) 1.22814 (1,11,4) -1.39018 (1,11,6) 1.324862E-02 (1,12,5) -0.878716
(1,11,6): (1,10,6) -0.429623 (1,11,5) -1.324862E-02 (1,11,7) 2.853800E-03 (1,12,6) -0.709546
(1,11,7): (1,10,7) 1.22313 (1,11,6) -2.853800E-03 (1,11,8) -1.36241 (1,12,7) -0.878688
(1,11,8): (1,10,8) -1.09222 (1,11,7) 1.36241 (1,11,9) -0.769283 (1,12,8) -0.171304
(1,11,9): (1,10,9) -0.838404 (1,11,8) 0.769283 (1,11,10) -0.312774 (1,12,9) 3.920171E-02
(1,11,10): (1,10,10) -0.528547 (1,11,9) 0.312774 (1,12,10) 5.970167E-02
(1,12,1): (1,11,1) -2.380619E-02 (1,12,2) 0.193190 (1,13,1) -8.419953E-02
(1,12,2): (1,11,2) -4.140127E-02 (1,12,1) -0.193190 (1,12,3) 0.404604 (1,13,2) -0.134152
(1,12,3): (1,11,3) -3.313186E-02 (1,12,2) -0.404604 (1,12,4) 0.616348 (1,13,3) -0.255928
(1,12,4): (1,11,4) 0.172613 (1,12,3) -0.616348 (1,12,5) 0.680692 (1,13,4) -0.487851
(1,12,5): (1,11,5) 0.878716 (1,12,4) -0.680692 (1,12,6) 0.181310 (1,13,5) -0.805745
(1,12,6): (1,11,6) 0.709546 (1,12,5) -0.181310 (1,12,7) -0.165156 (1,13,6) -0.855876
(1,12,7): (1,11,7) 0.878688 (1,12,6) 0.165156 (1,12,8) -0.651821 (1,13,7) -0.809137
(1,12,8): (1,11,8) 0.171304 (1,12,7) 0.651821 (1,12,9) -0.557576 (1,13,8) -0.497174
(1,12,9): (1,11,9) -3.920171E-02 (1,12,8) 0.557576 (1,12,10) -0.292223 (1,13,9) -0.277570
(1,12,10): (1,11,10) -5.970167E-02 (1,12,9) 0.292223 (1,13,10) -0.180963
(1,13,1): (1,12,1) 8.419953E-02 (1,13,2) 0.143209 (1,14,1) -9.927453E-02
(1,13,2): (1,12,2) 0.134152 (1,13,1) -0.143209 (1,13,3) 0.282651 (1,14,2) -0.152021
(1,13,3): (1,12,3) 0.255928 (1,13,2) -0.282651 (1,13,4) 0.384138 (1,14,3) -0.262306
(1,13,4): (1,12,4) 0.487851 (1,13,3) -0.384138 (1,13,5) 0.363174 (1,14,4) -0.425608
(1,13,5): (1,12,5) 0.805745 (1,13,4) -0.363174 (1,13,6) 0.131493 (1,14,5) -0.593495
(1,13,6): (1,12,6) 0.855876 (1,13,5) -0.131493 (1,13,7) -0.118717 (1,14,6) -0.648362
(1,13,7): (1,12,7) 0.809137 (1,13,6) 0.118717 (1,13,8) -0.340322 (1,14,7) -0.597407
(1,13,8): (1,12,8) 0.497174 (1,13,7) 0.340322 (1,13,9) -0.337845 (1,14,8) -0.436648
(1,13,9): (1,12,9) 0.277570 (1,13,8) 0.337845 (1,13,10) -0.195602 (1,14,9) -0.288306
(1,13,10): (1,12,10) 0.180963 (1,13,9) 0.195602 (1,14,10) -0.207680
(1,14,1): (1,13,1) 9.927453E-02 (1,14,2) 9.046721E-02 (1,15,1) -5.957025E-02
(1,14,2): (1,13,2) 0.152021 (1,14,1) -9.046721E-02 (1,14,3) 0.172344 (1,15,2) -8.915929E-02
(1,14,3): (1,13,3) 0.262306 (1,14,2) -0.172344 (1,14,4) 0.220901 (1,15,3) -0.147954
(1,14,4): (1,13,4) 0.425608 (1,14,3) -0.220901 (1,14,5) 0.195659 (1,15,4) -0.227899
(1,14,5): (1,13,5) 0.593495 (1,14,4) -0.195659 (1,14,6) 7.689667E-02 (1,15,5) -0.302562
(1,14,6): (1,13,6) 0.648362 (1,14,5) -7.689667E-02 (1,14,7) -6.801996E-02 (1,15,6) -0.330769
(1,14,7): (1,13,7) 0.597407 (1,14,6) 6.801996E-02 (1,14,8) -0.179960 (1,15,7) -0.304942
(1,14,8): (1,13,8) 0.436648 (1,14,7) 0.179960 (1,14,9) -0.189646 (1,15,8) -0.234622
(1,14,9): (1,13,9) 0.288306 (1,14,8) 0.189646 (1,14,10) -0.115050 (1,15,9) -0.163701
(1,14,10): (1,13,10) 0.207680 (1,14,9) 0.115050 (1,15,10) -0.122369
(1,15,1): (1,14,1) 5.957025E-02 (1,15,2) 6.087778E-02
(1,15,2): (1,14,2) 8.915929E-02 (1,15,1) -6.087778E-02 (1,15,3) 0.113535
(1,15,3): (1,14,3) 0.147954 (1,15,2) -0.113535 (1,15,4) 0.140962
(1,15,4): (1,14,4) 0.227899 (1,15,3) -0.140962 (1,15,5) 0.121075
(1,15,5): (1,14,5) 0.302562 (1,15,4) -0.121075 (1,15,6) 4.875928E-02
(1,15,6): (1,14,6) 0.330769 (1,15,5) -4.875928E-02 (1,15,7) -4.225954E-02
(1,15,7): (1,14,7) 0.304942 (1,15,6) 4.225954E-02 (1,15,8) -0.109725
(1,15,8): (1,14,8) 0.234622 (1,15,7) 0.109725 (1,15,9) -0.118756
(1,15,9): (1,14,9) 0.163701 (1,15,8) 0.118756 (1,15,10) -7.373776E-02
(1,15,10): (1,14,10) 0.122369 (1,15,9) 7.373776E-02

 WEL PACKAGE (WEL-1) FLOW RATES   PERIOD      2   STEP       75
 ----------------------------------------------------------------------------------------
   NUMBER   CELLID                    RATE       NAME                                    
 ----------------------------------------------------------------------------------------
     1      (1,8,6)              -202.14702      WEL                                     
 ----------------------------------------------------------------------------------------




 API PACKAGE (MAR) FLOW RATES   PERIOD      2   STEP       75
 -----------------------------------------------
   NUMBER   CELLID                    RATE      
 -----------------------------------------------
     1      (1,6,5)               46.666667     
     2      (1,6,6)               46.666667     
     3      (1,6,7)               46.666667     
     4      (1,10,5)              20.715673     
     5      (1,10,6)              20.715673     
     6      (1,10,7)              20.715673     
 -----------------------------------------------



1
  HEAD IN LAYER   1 AT END OF TIME STEP  75 IN STRESS PERIOD    2
  ---------------------------------------------------------------------------

            1           2           3           4           5           6           7           8           9          10
 ........................................................................................................................
   1   1.9405E-02  2.8266E-02  4.5255E-02  6.7148E-02  8.6639E-02  9.4596E-02  8.7441E-02  6.9388E-02  5.0417E-02  3.8906E-02
   2   2.8692E-02  4.3124E-02  7.1719E-02  0.1104      0.1464      0.1610      0.1476      0.1136      7.9271E-02  5.9150E-02
   3   4.5832E-02  7.1803E-02  0.1258      0.2043      0.2837      0.3146      0.2854      0.2092      0.1377      9.7917E-02
   4   6.5110E-02  0.1071      0.2009      0.3535      0.5315      0.5928      0.5337      0.3601      0.2173      0.1449    
   5   7.3633E-02  0.1280      0.2635      0.5313      0.9462       1.042      0.9486      0.5384      0.2816      0.1712    
   6   5.5233E-02  9.8077E-02  0.2259      0.5905       1.677       1.694       1.679      0.5959      0.2395      0.1299    
   7   9.7447E-03 -2.4634E-03 -4.5538E-02 -0.1683     -0.5032      -1.597     -0.5021     -0.1659     -4.1981E-02 -4.7546E-04
   8  -2.3601E-02 -7.8615E-02 -0.2596     -0.7967      -2.456      -8.655      -2.456     -0.7968     -0.2636     -9.9057E-02
   9  -1.4899E-02 -5.4283E-02 -0.1719     -0.4591      -1.081      -2.286      -1.081     -0.4586     -0.1741     -6.8588E-02
  10   1.6107E-02  1.4997E-02  1.6999E-02  7.0355E-02  0.4286      0.2705      0.4297      7.3002E-02  2.1752E-02  2.1302E-02
  11   3.6738E-02  5.4200E-02  9.5101E-02  0.1760      0.3108      0.3121      0.3124      0.1803      0.1047      7.3770E-02
  12   3.9109E-02  5.8316E-02  9.8382E-02  0.1591      0.2256      0.2433      0.2272      0.1635      0.1086      7.9693E-02
  13   3.0722E-02  4.4979E-02  7.3039E-02  0.1110      0.1468      0.1598      0.1481      0.1145      8.1143E-02  6.1740E-02
  14   2.0825E-02  2.9845E-02  4.6998E-02  6.8937E-02  8.8332E-02  9.5948E-02  8.9211E-02  7.1374E-02  5.2544E-02  4.1099E-02
  15   1.4880E-02  2.0955E-02  3.2272E-02  4.6303E-02  5.8341E-02  6.3186E-02  5.8987E-02  4.8078E-02  3.6260E-02  2.8912E-02

 HEAD WILL BE SAVED ON UNIT 1043 AT END OF TIME STEP   75, STRESS PERIOD    2


  VOLUME BUDGET FOR ENTIRE MODEL AT END OF TIME STEP   75, STRESS PERIOD   2
  ---------------------------------------------------------------------------------------------------

     CUMULATIVE VOLUME      L**3       RATES FOR THIS TIME STEP      L**3/T          PACKAGE NAME    
     ------------------                 ------------------------                     ----------------

           IN:                                      IN:
           ---                                      ---
              STO-SS =          25.2480                STO-SS =       1.4834E-02     STORAGE                          
              STO-SY =       59833.1349                STO-SY =          30.6580     STORAGE                          
                 WEL =           0.0000                   WEL =           0.0000     WEL-1                            
                 API =      169832.9288                   API =         202.1470     MAR                              
                 CHD =       2.8247E-08                   CHD =           0.0000     CHD_0                            

            TOTAL IN =      229691.3117              TOTAL IN =         232.8198

          OUT:                                     OUT:
          ----                                     ----
              STO-SS =          31.0282                STO-SS =       1.5724E-02     STORAGE                          
              STO-SY =       59827.3547                STO-SY =          30.6571     STORAGE                          
                 WEL =      169832.9288                   WEL =         202.1470     WEL-1                            
                 API =           0.0000                   API =           0.0000     MAR                              
                 CHD =       3.0388E-08                   CHD =           0.0000     CHD_0                            

           TOTAL OUT =      229691.3117             TOTAL OUT =         232.8198

            IN - OUT =       2.6235E-06              IN - OUT =       1.0289E-08

 PERCENT DISCREPANCY =           0.00     PERCENT DISCREPANCY =           0.00




         TIME SUMMARY AT END OF TIME STEP   75 IN STRESS PERIOD    2
                    SECONDS     MINUTES      HOURS       DAYS        YEARS
                    -----------------------------------------------------------
   TIME STEP LENGTH 8.64000E+05  14400.      240.00      10.000     2.73785E-02
 STRESS PERIOD TIME 6.48000E+07 1.08000E+06  18000.      750.00      2.0534    
         TOTAL TIME 6.48864E+07 1.08144E+06  18024.      751.00      2.0561    


end timestep


start timestep kper="2" kstp="76" mode="normal"

 UBDSV1 SAVING           STO-SS ON UNIT   1042 AT TIME STEP     76, STRESS PERIOD      2
 UBDSV1 SAVING           STO-SY ON UNIT   1042 AT TIME STEP     76, STRESS PERIOD      2
 UBDSV1 SAVING     FLOW-JA-FACE ON UNIT   1042 AT TIME STEP     76, STRESS PERIOD      2
 UBDSV06 SAVING       DATA-SPDIS IN MODEL GWF              PACKAGE NPF             CONNECTED TO MODEL GWF              PACKAGE NPF              ON UNIT   1042 AT TIME STEP     76, STRESS PERIOD      2
 UBDSV06 SAVING              WEL IN MODEL GWF              PACKAGE GWF             CONNECTED TO MODEL GWF              PACKAGE WEL-1            ON UNIT   1042 AT TIME STEP     76, STRESS PERIOD      2
 UBDSV06 SAVING              API IN MODEL GWF              PACKAGE GWF             CONNECTED TO MODEL GWF              PACKAGE MAR              ON UNIT   1042 AT TIME STEP     76, STRESS PERIOD      2
 UBDSV06 SAVING              CHD IN MODEL GWF              PACKAGE GWF             CONNECTED TO MODEL GWF              PACKAGE CHD_0            ON UNIT   1042 AT TIME STEP     76, STRESS PERIOD      2

    CALCULATED INTERCELL FLOW FOR PERIOD 2 STEP 76
(1,1,1): (1,1,2) 9.132335E-02 (1,2,1) 9.521973E-02
(1,1,2): (1,1,1) -9.132335E-02 (1,1,3) 0.174947 (1,2,2) 0.151771
(1,1,3): (1,1,2) -0.174947 (1,1,4) 0.225275 (1,2,3) 0.269876
(1,1,4): (1,1,3) -0.225275 (1,1,5) 0.200519 (1,2,4) 0.441056
(1,1,5): (1,1,4) -0.200519 (1,1,6) 8.194780E-02 (1,2,5) 0.611569
(1,1,6): (1,1,5) -8.194780E-02 (1,1,7) -7.333689E-02 (1,2,6) 0.680135
(1,1,7): (1,1,6) 7.333689E-02 (1,1,8) -0.185245 (1,2,7) 0.615113
(1,1,8): (1,1,7) 0.185245 (1,1,9) -0.194621 (1,2,8) 0.451274
(1,1,9): (1,1,8) 0.194621 (1,1,10) -0.118025 (1,2,9) 0.294750
(1,1,10): (1,1,9) 0.118025 (1,2,10) 0.207167
(1,2,1): (1,1,1) -9.521973E-02 (1,2,2) 0.147873 (1,3,1) 0.175112
(1,2,2): (1,1,2) -0.151771 (1,2,1) -0.147873 (1,2,3) 0.293079 (1,3,2) 0.292339
(1,2,3): (1,1,3) -0.269876 (1,2,2) -0.293079 (1,2,4) 0.396382 (1,3,3) 0.552188
(1,2,4): (1,1,4) -0.441056 (1,2,3) -0.396382 (1,2,5) 0.370636 (1,3,4) 0.964141
(1,2,5): (1,1,5) -0.611569 (1,2,4) -0.370636 (1,2,6) 0.150167 (1,3,5) 1.41749
(1,2,6): (1,1,6) -0.680135 (1,2,5) -0.150167 (1,2,7) -0.138022 (1,3,6) 1.59046
(1,2,7): (1,1,7) -0.615113 (1,2,6) 0.138022 (1,2,8) -0.348664 (1,3,7) 1.42376
(1,2,8): (1,1,8) -0.451274 (1,2,7) 0.348664 (1,2,9) -0.350993 (1,3,8) 0.982289
(1,2,9): (1,1,9) -0.294750 (1,2,8) 0.350993 (1,2,10) -0.205531 (1,3,9) 0.597251
(1,2,10): (1,1,10) -0.207167 (1,2,9) 0.205531 (1,3,10) 0.396282
(1,3,1): (1,2,1) -0.175112 (1,3,2) 0.265068 (1,4,1) 0.195608
(1,3,2): (1,2,2) -0.292339 (1,3,1) -0.265068 (1,3,3) 0.552929 (1,4,2) 0.358510
(1,3,3): (1,2,3) -0.552188 (1,3,2) -0.552929 (1,3,4) 0.807723 (1,4,3) 0.767199
(1,3,4): (1,2,4) -0.964141 (1,3,3) -0.807723 (1,3,5) 0.821478 (1,4,4) 1.54622
(1,3,5): (1,2,5) -1.41749 (1,3,4) -0.821478 (1,3,6) 0.321118 (1,4,5) 2.61020
(1,3,6): (1,2,6) -1.59046 (1,3,5) -0.321118 (1,3,7) -0.302755 (1,4,6) 2.94732
(1,3,7): (1,2,7) -1.42376 (1,3,6) 0.302755 (1,3,8) -0.787521 (1,4,7) 2.61674
(1,3,8): (1,2,8) -0.982289 (1,3,7) 0.787521 (1,3,9) -0.735129 (1,4,8) 1.56514
(1,3,9): (1,2,9) -0.597251 (1,3,8) 0.735129 (1,3,10) -0.406130 (1,4,9) 0.815784
(1,3,10): (1,2,10) -0.396282 (1,3,9) 0.406130 (1,4,10) 0.478428
(1,4,1): (1,3,1) -0.195608 (1,4,2) 0.428081 (1,5,1) 8.391245E-02
(1,4,2): (1,3,2) -0.358510 (1,4,1) -0.428081 (1,4,3) 0.962378 (1,5,2) 0.208203
(1,4,3): (1,3,3) -0.767199 (1,4,2) -0.962378 (1,4,4) 1.58704 (1,5,3) 0.637685
(1,4,4): (1,3,4) -1.54622 (1,4,3) -1.58704 (1,4,5) 1.87862 (1,5,4) 1.86508
(1,4,5): (1,3,5) -2.61020 (1,4,4) -1.87862 (1,4,6) 0.651653 (1,5,5) 4.53021
(1,4,6): (1,3,6) -2.94732 (1,4,5) -0.651653 (1,4,7) -0.626800 (1,5,6) 4.95613
(1,4,7): (1,3,7) -2.61674 (1,4,6) 0.626800 (1,4,8) -1.83188 (1,5,7) 4.53273
(1,4,8): (1,3,8) -1.56514 (1,4,7) 1.83188 (1,4,9) -1.48392 (1,5,8) 1.87150
(1,4,9): (1,3,9) -0.815784 (1,4,8) 1.48392 (1,4,10) -0.743254 (1,5,9) 0.655610
(1,4,10): (1,3,10) -0.478428 (1,4,9) 0.743254 (1,5,10) 0.263498
(1,5,1): (1,4,1) -8.391245E-02 (1,5,2) 0.552787 (1,6,1) -0.191355
(1,5,2): (1,4,2) -0.208203 (1,5,1) -0.552787 (1,5,3) 1.39493 (1,6,2) -0.311138
(1,5,3): (1,4,3) -0.637685 (1,5,2) -1.39493 (1,5,4) 2.82491 (1,6,3) -0.397804
(1,5,4): (1,4,4) -1.86508 (1,5,3) -2.82491 (1,5,5) 4.54405 (1,6,4) 0.610188
(1,5,5): (1,4,5) -4.53021 (1,5,4) -4.54405 (1,5,6) 1.06526 (1,6,5) 8.51602
(1,5,6): (1,4,6) -4.95613 (1,5,5) -1.06526 (1,5,7) -1.03785 (1,6,6) 7.59592
(1,5,7): (1,4,7) -4.53273 (1,5,6) 1.03785 (1,5,8) -4.49224 (1,6,7) 8.51049
(1,5,8): (1,4,8) -1.87150 (1,5,7) 4.49224 (1,5,9) -2.70885 (1,6,8) 0.591873
(1,5,9): (1,4,9) -0.655610 (1,5,8) 2.70885 (1,5,10) -1.13714 (1,6,9) -0.447303
(1,5,10): (1,4,10) -0.263498 (1,5,9) 1.13714 (1,6,10) -0.431298
(1,6,1): (1,5,1) 0.191355 (1,6,2) 0.432724 (1,7,1) -0.465400
(1,6,2): (1,5,2) 0.311138 (1,6,1) -0.432724 (1,6,3) 1.30748 (1,7,2) -1.02616
(1,6,3): (1,5,3) 0.397804 (1,6,2) -1.30748 (1,6,4) 3.86097 (1,7,3) -2.79168
(1,6,4): (1,5,4) -0.610188 (1,6,3) -3.86097 (1,6,5) 12.6899 (1,7,4) -8.05558
(1,6,5): (1,5,5) -8.51602 (1,6,4) -12.6899 (1,6,6) 0.195607 (1,7,5) -25.4811
(1,6,6): (1,5,6) -7.59592 (1,6,5) -0.195607 (1,6,7) -0.173496 (1,7,6) -38.4925
(1,6,7): (1,5,7) -8.51049 (1,6,6) 0.173496 (1,6,8) -12.6493 (1,7,7) -25.4942
(1,6,8): (1,5,8) -0.591873 (1,6,7) 12.6493 (1,6,9) -3.77599 (1,7,8) -8.09272
(1,6,9): (1,5,9) 0.447303 (1,6,8) 3.77599 (1,6,10) -1.12106 (1,7,9) -2.89982
(1,6,10): (1,5,10) 0.431298 (1,6,9) 1.12106 (1,7,10) -1.33616
(1,7,1): (1,6,1) 0.465400 (1,7,2) -0.124943 (1,8,1) -0.340262
(1,7,2): (1,6,2) 1.02616 (1,7,1) 0.124943 (1,7,3) -0.435061 (1,8,2) -0.770668
(1,7,3): (1,6,3) 2.79168 (1,7,2) 0.435061 (1,7,4) -1.22496 (1,8,3) -2.14513
(1,7,4): (1,6,4) 8.05558 (1,7,3) 1.22496 (1,7,5) -3.29074 (1,8,4) -6.19870
(1,7,5): (1,6,5) 25.4811 (1,7,4) 3.29074 (1,7,6) -10.3766 (1,8,5) -18.5704
(1,7,6): (1,6,6) 38.4925 (1,7,5) 10.3766 (1,7,7) 10.3885 (1,8,6) -59.3164
(1,7,7): (1,6,7) 25.4942 (1,7,6) -10.3885 (1,7,8) 3.30452 (1,8,7) -18.5794
(1,7,8): (1,6,8) 8.09272 (1,7,7) -3.30452 (1,7,9) 1.23659 (1,8,8) -6.22494
(1,7,9): (1,6,9) 2.89982 (1,7,8) -1.23659 (1,7,10) 0.418065 (1,8,9) -2.22282
(1,7,10): (1,6,10) 1.33616 (1,7,9) -0.418065 (1,8,10) -0.998666
(1,8,1): (1,7,1) 0.340262 (1,8,2) -0.554421 (1,9,1) 8.473261E-02
(1,8,2): (1,7,2) 0.770668 (1,8,1) 0.554421 (1,8,3) -1.80488 (1,9,2) 0.237846
(1,8,3): (1,7,3) 2.14513 (1,8,2) 1.80488 (1,8,4) -5.24016 (1,9,3) 0.852660
(1,8,4): (1,7,4) 6.19870 (1,8,3) 5.24016 (1,8,5) -15.2705 (1,9,4) 3.20259
(1,8,5): (1,7,5) 18.5704 (1,8,4) 15.2705 (1,8,6) -46.7193 (1,9,5) 12.2273
(1,8,6): (1,7,6) 59.3164 (1,8,5) 46.7193 (1,8,7) 46.7249 (1,9,6) 49.0383
(1,8,7): (1,7,7) 18.5794 (1,8,6) -46.7249 (1,8,8) 15.2660 (1,9,7) 12.2291
(1,8,8): (1,7,8) 6.22494 (1,8,7) -15.2660 (1,8,9) 5.19812 (1,9,8) 3.20764
(1,8,9): (1,7,9) 2.22282 (1,8,8) -5.19812 (1,8,10) 1.63506 (1,9,9) 0.869708
(1,8,10): (1,7,10) 0.998666 (1,8,9) -1.63506 (1,9,10) 0.297026
(1,9,1): (1,8,1) -8.473261E-02 (1,9,2) -0.400818 (1,10,1) 0.313190
(1,9,2): (1,8,2) -0.237846 (1,9,1) 0.400818 (1,9,3) -1.18408 (1,10,2) 0.696407
(1,9,3): (1,8,3) -0.852660 (1,9,2) 1.18408 (1,9,4) -2.83985 (1,10,3) 1.89328
(1,9,4): (1,8,4) -3.20259 (1,9,3) 2.83985 (1,9,5) -5.94751 (1,10,4) 5.32612
(1,9,5): (1,8,5) -12.2273 (1,9,4) 5.94751 (1,9,6) -10.7408 (1,10,5) 15.7170
(1,9,6): (1,8,6) -49.0383 (1,9,5) 10.7408 (1,9,7) 10.7461 (1,10,6) 26.2135
(1,9,7): (1,8,7) -12.2291 (1,9,6) -10.7461 (1,9,8) 5.94697 (1,10,7) 15.7244
(1,9,8): (1,8,8) -3.20764 (1,9,7) -5.94697 (1,9,9) 2.81121 (1,10,8) 5.34960
(1,9,9): (1,8,9) -0.869708 (1,9,8) -2.81121 (1,9,10) 1.05788 (1,10,9) 1.96445
(1,9,10): (1,8,10) -0.297026 (1,9,9) -1.05788 (1,10,10) 0.904528
(1,10,1): (1,9,1) -0.313190 (1,10,2) -1.872621E-02 (1,11,1) 0.212370
(1,10,2): (1,9,2) -0.696407 (1,10,1) 1.872621E-02 (1,10,3) 4.427765E-03 (1,11,2) 0.401670
(1,10,3): (1,9,3) -1.89328 (1,10,2) -4.427765E-03 (1,10,4) 0.513925 (1,11,3) 0.800164
(1,10,4): (1,9,4) -5.32612 (1,10,3) -0.513925 (1,10,5) 3.70359 (1,11,4) 1.09336
(1,10,5): (1,9,5) -15.7170 (1,10,4) -3.70359 (1,10,6) -1.65603 (1,11,5) -1.19621
(1,10,6): (1,9,6) -26.2135 (1,10,5) 1.65603 (1,10,7) 1.66746 (1,11,6) 0.461898
(1,10,7): (1,9,7) -15.7244 (1,10,6) -1.66746 (1,10,8) -3.68774 (1,11,7) -1.19098
(1,10,8): (1,9,8) -5.34960 (1,10,7) 3.68774 (1,10,9) -0.494154 (1,11,8) 1.11099
(1,10,9): (1,9,9) -1.96445 (1,10,8) 0.494154 (1,10,10) 7.431404E-03 (1,11,9) 0.851529
(1,10,10): (1,9,10) -0.904528 (1,10,9) -7.431404E-03 (1,11,10) 0.538957
(1,11,1): (1,10,1) -0.212370 (1,11,2) 0.170144 (1,12,1) 2.851877E-02
(1,11,2): (1,10,2) -0.401670 (1,11,1) -0.170144 (1,11,3) 0.401368 (1,12,2) 4.898781E-02
(1,11,3): (1,10,3) -0.800164 (1,11,2) -0.401368 (1,11,4) 0.806326 (1,12,3) 4.644484E-02
(1,11,4): (1,10,4) -1.09336 (1,11,3) -0.806326 (1,11,5) 1.37208 (1,12,4) -0.151149
(1,11,5): (1,10,5) 1.19621 (1,11,4) -1.37208 (1,11,6) 7.110447E-03 (1,12,5) -0.848095
(1,11,6): (1,10,6) -0.461898 (1,11,5) -7.110447E-03 (1,11,7) 9.315530E-03 (1,12,6) -0.676196
(1,11,7): (1,10,7) 1.19098 (1,11,6) -9.315530E-03 (1,11,8) -1.34416 (1,12,7) -0.847924
(1,11,8): (1,10,8) -1.11099 (1,11,7) 1.34416 (1,11,9) -0.752734 (1,12,8) -0.149378
(1,11,9): (1,10,9) -0.851529 (1,11,8) 0.752734 (1,11,10) -0.303472 (1,12,9) 5.374718E-02
(1,11,10): (1,10,10) -0.538957 (1,11,9) 0.303472 (1,12,10) 7.014729E-02
(1,12,1): (1,11,1) -2.851877E-02 (1,12,2) 0.190642 (1,13,1) -8.192157E-02
(1,12,2): (1,11,2) -4.898781E-02 (1,12,1) -0.190642 (1,12,3) 0.398815 (1,13,2) -0.129732
(1,12,3): (1,11,3) -4.644484E-02 (1,12,2) -0.398815 (1,12,4) 0.607500 (1,13,3) -0.247163
(1,12,4): (1,11,4) 0.151149 (1,12,3) -0.607500 (1,12,5) 0.671708 (1,13,4) -0.473037
(1,12,5): (1,11,5) 0.848095 (1,12,4) -0.671708 (1,12,6) 0.177926 (1,13,5) -0.785021
(1,12,6): (1,11,6) 0.676196 (1,12,5) -0.177926 (1,12,7) -0.161305 (1,13,6) -0.832933
(1,12,7): (1,11,7) 0.847924 (1,12,6) 0.161305 (1,12,8) -0.642357 (1,13,7) -0.788392
(1,12,8): (1,11,8) 0.149378 (1,12,7) 0.642357 (1,12,9) -0.548452 (1,13,8) -0.482212
(1,12,9): (1,11,9) -5.374718E-02 (1,12,8) 0.548452 (1,12,10) -0.287034 (1,13,9) -0.268230
(1,12,10): (1,11,10) -7.014729E-02 (1,12,9) 0.287034 (1,13,10) -0.174888
(1,13,1): (1,12,1) 8.192157E-02 (1,13,2) 0.142803 (1,14,1) -9.905346E-02
(1,13,2): (1,12,2) 0.129732 (1,13,1) -0.142803 (1,13,3) 0.281210 (1,14,2) -0.150719
(1,13,3): (1,12,3) 0.247163 (1,13,2) -0.281210 (1,13,4) 0.381333 (1,14,3) -0.258738
(1,13,4): (1,12,4) 0.473037 (1,13,3) -0.381333 (1,13,5) 0.360059 (1,14,4) -0.418833
(1,13,5): (1,12,5) 0.785021 (1,13,4) -0.360059 (1,13,6) 0.130305 (1,14,5) -0.583656
(1,13,6): (1,12,6) 0.832933 (1,13,5) -0.130305 (1,13,7) -0.117041 (1,14,6) -0.637314
(1,13,7): (1,12,7) 0.788392 (1,13,6) 0.117041 (1,13,8) -0.336600 (1,14,7) -0.587626
(1,13,8): (1,12,8) 0.482212 (1,13,7) 0.336600 (1,13,9) -0.334333 (1,14,8) -0.429952
(1,13,9): (1,12,9) 0.268230 (1,13,8) 0.334333 (1,13,10) -0.193675 (1,14,9) -0.284710
(1,13,10): (1,12,10) 0.174888 (1,13,9) 0.193675 (1,14,10) -0.205901
(1,14,1): (1,13,1) 9.905346E-02 (1,14,2) 9.114143E-02 (1,15,1) -5.998995E-02
(1,14,2): (1,13,2) 0.150719 (1,14,1) -9.114143E-02 (1,14,3) 0.173167 (1,15,2) -8.921895E-02
(1,14,3): (1,13,3) 0.258738 (1,14,2) -0.173167 (1,14,4) 0.221297 (1,15,3) -0.147216
(1,14,4): (1,13,4) 0.418833 (1,14,3) -0.221297 (1,14,5) 0.195591 (1,15,4) -0.225983
(1,14,5): (1,13,5) 0.583656 (1,14,4) -0.195591 (1,14,6) 7.690710E-02 (1,15,5) -0.299505
(1,14,6): (1,13,6) 0.637314 (1,14,5) -7.690710E-02 (1,14,7) -6.760027E-02 (1,15,6) -0.327257
(1,14,7): (1,13,7) 0.587626 (1,14,6) 6.760027E-02 (1,14,8) -0.179308 (1,15,7) -0.301941
(1,14,8): (1,13,8) 0.429952 (1,14,7) 0.179308 (1,14,9) -0.189226 (1,15,8) -0.232815
(1,14,9): (1,13,9) 0.284710 (1,14,8) 0.189226 (1,14,10) -0.114937 (1,15,9) -0.163094
(1,14,10): (1,13,10) 0.205901 (1,14,9) 0.114937 (1,15,10) -0.122461
(1,15,1): (1,14,1) 5.998995E-02 (1,15,2) 6.191187E-02
(1,15,2): (1,14,2) 8.921895E-02 (1,15,1) -6.191187E-02 (1,15,3) 0.115156
(1,15,3): (1,14,3) 0.147216 (1,15,2) -0.115156 (1,15,4) 0.142533
(1,15,4): (1,14,4) 0.225983 (1,15,3) -0.142533 (1,15,5) 0.122143
(1,15,5): (1,14,5) 0.299505 (1,15,4) -0.122143 (1,15,6) 4.922277E-02
(1,15,6): (1,14,6) 0.327257 (1,15,5) -4.922277E-02 (1,15,7) -4.234807E-02
(1,15,7): (1,14,7) 0.301941 (1,15,6) 4.234807E-02 (1,15,8) -0.110265
(1,15,8): (1,14,8) 0.232815 (1,15,7) 0.110265 (1,15,9) -0.119535
(1,15,9): (1,14,9) 0.163094 (1,15,8) 0.119535 (1,15,10) -7.432331E-02
(1,15,10): (1,14,10) 0.122461 (1,15,9) 7.432331E-02

 WEL PACKAGE (WEL-1) FLOW RATES   PERIOD      2   STEP       76
 ----------------------------------------------------------------------------------------
   NUMBER   CELLID                    RATE       NAME                                    
 ----------------------------------------------------------------------------------------
     1      (1,8,6)              -201.98289      WEL                                     
 ----------------------------------------------------------------------------------------




 API PACKAGE (MAR) FLOW RATES   PERIOD      2   STEP       76
 -----------------------------------------------
   NUMBER   CELLID                    RATE      
 -----------------------------------------------
     1      (1,6,5)               46.666667     
     2      (1,6,6)               46.666667     
     3      (1,6,7)               46.666667     
     4      (1,10,5)              20.660962     
     5      (1,10,6)              20.660962     
     6      (1,10,7)              20.660962     
 -----------------------------------------------



1
  HEAD IN LAYER   1 AT END OF TIME STEP  76 IN STRESS PERIOD    2
  ---------------------------------------------------------------------------

            1           2           3           4           5           6           7           8           9          10
 ........................................................................................................................
   1   2.0337E-02  2.9443E-02  4.6856E-02  6.9228E-02  8.9103E-02  9.7219E-02  8.9956E-02  7.1597E-02  5.2273E-02  4.0532E-02
   2   2.9831E-02  4.4552E-02  7.3646E-02  0.1128      0.1494      0.1641      0.1506      0.1162      8.1509E-02  6.1123E-02
   3   4.7259E-02  7.3573E-02  0.1282      0.2073      0.2872      0.3183      0.2889      0.2124      0.1404      0.1004    
   4   6.6691E-02  0.1090      0.2034      0.3566      0.5349      0.5964      0.5373      0.3634      0.2202      0.1475    
   5   7.5019E-02  0.1296      0.2655      0.5337      0.9487       1.045      0.9512      0.5410      0.2840      0.1734    
   6   5.6026E-02  9.8875E-02  0.2267      0.5913       1.678       1.695       1.680      0.5968      0.2405      0.1310    
   7   9.7457E-03 -2.7364E-03 -4.6254E-02 -0.1693     -0.5041      -1.597     -0.5029     -0.1669     -4.2688E-02 -8.7809E-04
   8  -2.4247E-02 -7.9824E-02 -0.2618     -0.7999      -2.460      -8.656      -2.459     -0.7999     -0.2659     -0.1008    
   9  -1.5761E-02 -5.5906E-02 -0.1750     -0.4640      -1.088      -2.293      -1.087     -0.4636     -0.1774     -7.0839E-02
  10   1.5510E-02  1.3640E-02  1.4082E-02  6.5142E-02  0.4206      0.2616      0.4216      6.7779E-02  1.8697E-02  1.9438E-02
  11   3.6669E-02  5.3593E-02  9.3358E-02  0.1726      0.3058      0.3065      0.3074      0.1769      0.1030      7.2944E-02
  12   3.9510E-02  5.8463E-02  9.7958E-02  0.1578      0.2235      0.2408      0.2251      0.1623      0.1083      7.9903E-02
  13   3.1350E-02  4.5565E-02  7.3481E-02  0.1112      0.1467      0.1595      0.1480      0.1148      8.1763E-02  6.2553E-02
  14   2.1475E-02  3.0562E-02  4.7796E-02  6.9773E-02  8.9159E-02  9.6776E-02  9.0081E-02  7.2310E-02  5.3523E-02  4.2091E-02
  15   1.5489E-02  2.1667E-02  3.3145E-02  4.7331E-02  5.9473E-02  6.4364E-02  6.0156E-02  4.9196E-02  3.7301E-02  2.9896E-02

 HEAD WILL BE SAVED ON UNIT 1043 AT END OF TIME STEP   76, STRESS PERIOD    2


  VOLUME BUDGET FOR ENTIRE MODEL AT END OF TIME STEP   76, STRESS PERIOD   2
  ---------------------------------------------------------------------------------------------------

     CUMULATIVE VOLUME      L**3       RATES FOR THIS TIME STEP      L**3/T          PACKAGE NAME    
     ------------------                 ------------------------                     ----------------

           IN:                                      IN:
           ---                                      ---
              STO-SS =          25.3950                STO-SS =       1.4693E-02     STORAGE                          
              STO-SY =       60136.7778                STO-SY =          30.3643     STORAGE                          
                 WEL =           0.0000                   WEL =           0.0000     WEL-1                            
                 API =      171852.7577                   API =         201.9829     MAR                              
                 CHD =       2.8247E-08                   CHD =           0.0000     CHD_0                            

            TOTAL IN =      232014.9304              TOTAL IN =         232.3619

          OUT:                                     OUT:
          ----                                     ----
              STO-SS =          31.1840                STO-SS =       1.5574E-02     STORAGE                          
              STO-SY =       60130.9888                STO-SY =          30.3634     STORAGE                          
                 WEL =      171852.7576                   WEL =         201.9829     WEL-1                            
                 API =           0.0000                   API =           0.0000     MAR                              
                 CHD =       3.0388E-08                   CHD =           0.0000     CHD_0                            

           TOTAL OUT =      232014.9304             TOTAL OUT =         232.3619

            IN - OUT =       2.7267E-06              IN - OUT =       1.0319E-08

 PERCENT DISCREPANCY =           0.00     PERCENT DISCREPANCY =           0.00




         TIME SUMMARY AT END OF TIME STEP   76 IN STRESS PERIOD    2
                    SECONDS     MINUTES      HOURS       DAYS        YEARS
                    -----------------------------------------------------------
   TIME STEP LENGTH 8.64000E+05  14400.      240.00      10.000     2.73785E-02
 STRESS PERIOD TIME 6.56640E+07 1.09440E+06  18240.      760.00      2.0808    
         TOTAL TIME 6.57504E+07 1.09584E+06  18264.      761.00      2.0835    


end timestep


start timestep kper="2" kstp="77" mode="normal"

 UBDSV1 SAVING           STO-SS ON UNIT   1042 AT TIME STEP     77, STRESS PERIOD      2
 UBDSV1 SAVING           STO-SY ON UNIT   1042 AT TIME STEP     77, STRESS PERIOD      2
 UBDSV1 SAVING     FLOW-JA-FACE ON UNIT   1042 AT TIME STEP     77, STRESS PERIOD      2
 UBDSV06 SAVING       DATA-SPDIS IN MODEL GWF              PACKAGE NPF             CONNECTED TO MODEL GWF              PACKAGE NPF              ON UNIT   1042 AT TIME STEP     77, STRESS PERIOD      2
 UBDSV06 SAVING              WEL IN MODEL GWF              PACKAGE GWF             CONNECTED TO MODEL GWF              PACKAGE WEL-1            ON UNIT   1042 AT TIME STEP     77, STRESS PERIOD      2
 UBDSV06 SAVING              API IN MODEL GWF              PACKAGE GWF             CONNECTED TO MODEL GWF              PACKAGE MAR              ON UNIT   1042 AT TIME STEP     77, STRESS PERIOD      2
 UBDSV06 SAVING              CHD IN MODEL GWF              PACKAGE GWF             CONNECTED TO MODEL GWF              PACKAGE CHD_0            ON UNIT   1042 AT TIME STEP     77, STRESS PERIOD      2

    CALCULATED INTERCELL FLOW FOR PERIOD 2 STEP 77
(1,1,1): (1,1,2) 9.377357E-02 (1,2,1) 9.725783E-02
(1,1,2): (1,1,1) -9.377357E-02 (1,1,3) 0.179210 (1,2,2) 0.154257
(1,1,3): (1,1,2) -0.179210 (1,1,4) 0.230122 (1,2,3) 0.273110
(1,1,4): (1,1,3) -0.230122 (1,1,5) 0.204402 (1,2,4) 0.445098
(1,1,5): (1,1,4) -0.204402 (1,1,6) 8.356812E-02 (1,2,5) 0.616231
(1,1,6): (1,1,5) -8.356812E-02 (1,1,7) -7.442029E-02 (1,2,6) 0.685065
(1,1,7): (1,1,6) 7.442029E-02 (1,1,8) -0.188328 (1,2,7) 0.619898
(1,1,8): (1,1,7) 0.188328 (1,1,9) -0.198158 (1,2,8) 0.455614
(1,1,9): (1,1,8) 0.198158 (1,1,10) -0.120330 (1,2,9) 0.298554
(1,1,10): (1,1,9) 0.120330 (1,2,10) 0.210607
(1,2,1): (1,1,1) -9.725783E-02 (1,2,2) 0.150770 (1,3,1) 0.177956
(1,2,2): (1,1,2) -0.154257 (1,2,1) -0.150770 (1,2,3) 0.298092 (1,3,2) 0.295702
(1,2,3): (1,1,3) -0.273110 (1,2,2) -0.298092 (1,2,4) 0.402038 (1,3,3) 0.556382
(1,2,4): (1,1,4) -0.445098 (1,2,3) -0.402038 (1,2,5) 0.375138 (1,3,4) 0.969176
(1,2,5): (1,1,5) -0.616231 (1,2,4) -0.375138 (1,2,6) 0.152052 (1,3,5) 1.42314
(1,2,6): (1,1,6) -0.685065 (1,2,5) -0.152052 (1,2,7) -0.139247 (1,3,6) 1.59639
(1,2,7): (1,1,7) -0.619898 (1,2,6) 0.139247 (1,2,8) -0.352190 (1,3,7) 1.42958
(1,2,8): (1,1,8) -0.455614 (1,2,7) 0.352190 (1,2,9) -0.355065 (1,3,8) 0.987753
(1,2,9): (1,1,9) -0.298554 (1,2,8) 0.355065 (1,2,10) -0.208199 (1,3,9) 0.602238
(1,2,10): (1,1,10) -0.210607 (1,2,9) 0.208199 (1,3,10) 0.400925
(1,3,1): (1,2,1) -0.177956 (1,3,2) 0.268485 (1,4,1) 0.197081
(1,3,2): (1,2,2) -0.295702 (1,3,1) -0.268485 (1,3,3) 0.558778 (1,4,2) 0.359952
(1,3,3): (1,2,3) -0.556382 (1,3,2) -0.558778 (1,3,4) 0.814224 (1,4,3) 0.768491
(1,3,4): (1,2,4) -0.969176 (1,3,3) -0.814224 (1,3,5) 0.826586 (1,4,4) 1.54721
(1,3,5): (1,2,5) -1.42314 (1,3,4) -0.826586 (1,3,6) 0.323282 (1,4,5) 2.61085
(1,3,6): (1,2,6) -1.59639 (1,3,5) -0.323282 (1,3,7) -0.304077 (1,4,6) 2.94793
(1,3,7): (1,2,7) -1.42958 (1,3,6) 0.304077 (1,3,8) -0.791403 (1,4,7) 2.61751
(1,3,8): (1,2,8) -0.987753 (1,3,7) 0.791403 (1,3,9) -0.739674 (1,4,8) 1.56638
(1,3,9): (1,2,9) -0.602238 (1,3,8) 0.739674 (1,3,10) -0.409137 (1,4,9) 0.817480
(1,3,10): (1,2,10) -0.400925 (1,3,9) 0.409137 (1,4,10) 0.480383
(1,4,1): (1,3,1) -0.197081 (1,4,2) 0.431469 (1,5,1) 8.188621E-02
(1,4,2): (1,3,2) -0.359952 (1,4,1) -0.431469 (1,4,3) 0.968094 (1,5,2) 0.205068
(1,4,3): (1,3,3) -0.768491 (1,4,2) -0.968094 (1,4,4) 1.59327 (1,5,3) 0.632606
(1,4,4): (1,3,4) -1.54721 (1,4,3) -1.59327 (1,4,5) 1.88343 (1,5,4) 1.85781
(1,4,5): (1,3,5) -2.61085 (1,4,4) -1.88343 (1,4,6) 0.653799 (1,5,5) 4.52115
(1,4,6): (1,3,6) -2.94793 (1,4,5) -0.653799 (1,4,7) -0.627979 (1,5,6) 4.94672
(1,4,7): (1,3,7) -2.61751 (1,4,6) 0.627979 (1,4,8) -1.83532 (1,5,7) 4.52361
(1,4,8): (1,3,8) -1.56638 (1,4,7) 1.83532 (1,4,9) -1.48803 (1,5,8) 1.86402
(1,4,9): (1,3,9) -0.817480 (1,4,8) 1.48803 (1,4,10) -0.746007 (1,5,9) 0.649957
(1,4,10): (1,3,10) -0.480383 (1,4,9) 0.746007 (1,5,10) 0.259083
(1,5,1): (1,4,1) -8.188621E-02 (1,5,2) 0.555070 (1,6,1) -0.197375
(1,5,2): (1,4,2) -0.205068 (1,5,1) -0.555070 (1,5,3) 1.39872 (1,6,2) -0.319388
(1,5,3): (1,4,3) -0.632606 (1,5,2) -1.39872 (1,5,4) 2.82905 (1,6,3) -0.409753
(1,5,4): (1,4,4) -1.85781 (1,5,3) -2.82905 (1,5,5) 4.54734 (1,6,4) 0.594617
(1,5,5): (1,4,5) -4.52115 (1,5,4) -4.54734 (1,5,6) 1.06711 (1,6,5) 8.49772
(1,5,6): (1,4,6) -4.94672 (1,5,5) -1.06711 (1,5,7) -1.03878 (1,6,6) 7.57789
(1,5,7): (1,4,7) -4.52361 (1,5,6) 1.03878 (1,5,8) -4.49429 (1,6,7) 8.49191
(1,5,8): (1,4,8) -1.86402 (1,5,7) 4.49429 (1,5,9) -2.71122 (1,6,8) 0.575548
(1,5,9): (1,4,9) -0.649957 (1,5,8) 2.71122 (1,5,10) -1.13867 (1,6,9) -0.460924
(1,5,10): (1,4,10) -0.259083 (1,5,9) 1.13867 (1,6,10) -0.442814
(1,6,1): (1,5,1) 0.197375 (1,6,2) 0.432780 (1,7,1) -0.473367
(1,6,2): (1,5,2) 0.319388 (1,6,1) -0.432780 (1,6,3) 1.30755 (1,7,2) -1.03694
(1,6,3): (1,5,3) 0.409753 (1,6,2) -1.30755 (1,6,4) 3.86145 (1,7,3) -2.80710
(1,6,4): (1,5,4) -0.594617 (1,6,3) -3.86145 (1,6,5) 12.6916 (1,7,4) -8.07544
(1,6,5): (1,5,5) -8.49772 (1,6,4) -12.6916 (1,6,6) 0.197568 (1,7,5) -25.5029
(1,6,6): (1,5,6) -7.57789 (1,6,5) -0.197568 (1,6,7) -0.174813 (1,7,6) -38.5111
(1,6,7): (1,5,7) -8.49191 (1,6,6) 0.174813 (1,6,8) -12.6501 (1,7,7) -25.5164
(1,6,8): (1,5,8) -0.575548 (1,6,7) 12.6501 (1,6,9) -3.77562 (1,7,8) -8.11358
(1,6,9): (1,5,9) 0.460924 (1,6,8) 3.77562 (1,6,10) -1.12048 (1,7,9) -2.91742
(1,6,10): (1,5,10) 0.442814 (1,6,9) 1.12048 (1,7,10) -1.35116
(1,7,1): (1,6,1) 0.473367 (1,7,2) -0.127629 (1,8,1) -0.346746
(1,7,2): (1,6,2) 1.03694 (1,7,1) 0.127629 (1,7,3) -0.439356 (1,8,2) -0.779935
(1,7,3): (1,6,3) 2.80710 (1,7,2) 0.439356 (1,7,4) -1.22799 (1,8,3) -2.15940
(1,7,4): (1,6,4) 8.07544 (1,7,3) 1.22799 (1,7,5) -3.28872 (1,8,4) -6.21830
(1,7,5): (1,6,5) 25.5029 (1,7,4) 3.28872 (1,7,6) -10.3703 (1,8,5) -18.5909
(1,7,6): (1,6,6) 38.5111 (1,7,5) 10.3703 (1,7,7) 10.3825 (1,8,6) -59.3197
(1,7,7): (1,6,7) 25.5164 (1,7,6) -10.3825 (1,7,8) 3.30265 (1,8,7) -18.6002
(1,7,8): (1,6,8) 8.11358 (1,7,7) -3.30265 (1,7,9) 1.23926 (1,8,8) -6.24532
(1,7,9): (1,6,9) 2.91742 (1,7,8) -1.23926 (1,7,10) 0.420968 (1,8,9) -2.23883
(1,7,10): (1,6,10) 1.35116 (1,7,9) -0.420968 (1,8,10) -1.01146
(1,8,1): (1,7,1) 0.346746 (1,8,2) -0.559869 (1,9,1) 8.250860E-02
(1,8,2): (1,7,2) 0.779935 (1,8,1) 0.559869 (1,8,3) -1.81408 (1,9,2) 0.233638
(1,8,3): (1,7,3) 2.15940 (1,8,2) 1.81408 (1,8,4) -5.24800 (1,9,3) 0.843691
(1,8,4): (1,7,4) 6.21830 (1,8,3) 5.24800 (1,8,5) -15.2663 (1,9,4) 3.18425
(1,8,5): (1,7,5) 18.5909 (1,8,4) 15.2663 (1,8,6) -46.6824 (1,9,5) 12.1900
(1,8,6): (1,7,6) 59.3197 (1,8,5) 46.6824 (1,8,7) 46.6881 (1,9,6) 48.9532
(1,8,7): (1,7,7) 18.6002 (1,8,6) -46.6881 (1,8,8) 15.2614 (1,9,7) 12.1918
(1,8,8): (1,7,8) 6.24532 (1,8,7) -15.2614 (1,8,9) 5.20456 (1,9,8) 3.18911
(1,8,9): (1,7,9) 2.23883 (1,8,8) -5.20456 (1,8,10) 1.64103 (1,9,9) 0.860184
(1,8,10): (1,7,10) 1.01146 (1,8,9) -1.64103 (1,9,10) 0.291363
(1,9,1): (1,8,1) -8.250860E-02 (1,9,2) -0.408243 (1,10,1) 0.315709
(1,9,2): (1,8,2) -0.233638 (1,9,1) 0.408243 (1,9,3) -1.19798 (1,10,2) 0.698820
(1,9,3): (1,8,3) -0.843691 (1,9,2) 1.19798 (1,9,4) -2.85657 (1,10,3) 1.89411
(1,9,4): (1,8,4) -3.18425 (1,9,3) 2.85657 (1,9,5) -5.95924 (1,10,4) 5.32029
(1,9,5): (1,8,5) -12.1900 (1,9,4) 5.95924 (1,9,6) -10.7345 (1,10,5) 15.6892
(1,9,6): (1,8,6) -48.9532 (1,9,5) 10.7345 (1,9,7) 10.7399 (1,10,6) 26.1697
(1,9,7): (1,8,7) -12.1918 (1,9,6) -10.7399 (1,9,8) 5.95821 (1,10,7) 15.6967
(1,9,8): (1,8,8) -3.18911 (1,9,7) -5.95821 (1,9,9) 2.82619 (1,10,8) 5.34413
(1,9,9): (1,8,9) -0.860184 (1,9,8) -2.82619 (1,9,10) 1.06765 (1,10,9) 1.96600
(1,9,10): (1,8,10) -0.291363 (1,9,9) -1.06765 (1,10,10) 0.908017
(1,10,1): (1,9,1) -0.315709 (1,10,2) -2.623782E-02 (1,11,1) 0.217620
(1,10,2): (1,9,2) -0.698820 (1,10,1) 2.623782E-02 (1,10,3) -1.088985E-02 (1,11,2) 0.409038
(1,10,3): (1,9,3) -1.89411 (1,10,2) 1.088985E-02 (1,10,4) 0.491141 (1,11,3) 0.811534
(1,10,4): (1,9,4) -5.32029 (1,10,3) -0.491141 (1,10,5) 3.67200 (1,11,4) 1.11090
(1,10,5): (1,9,5) -15.6892 (1,10,4) -3.67200 (1,10,6) -1.66262 (1,11,5) -1.16536
(1,10,6): (1,9,6) -26.1697 (1,10,5) 1.66262 (1,10,7) 1.67414 (1,11,6) 0.493047
(1,10,7): (1,9,7) -15.6967 (1,10,6) -1.67414 (1,10,8) -3.65641 (1,11,7) -1.15992
(1,10,8): (1,9,8) -5.34413 (1,10,7) 3.65641 (1,10,9) -0.472712 (1,11,8) 1.12913
(1,10,9): (1,9,9) -1.96600 (1,10,8) 0.472712 (1,10,10) 1.904626E-02 (1,11,9) 0.864302
(1,10,10): (1,9,10) -0.908017 (1,10,9) -1.904626E-02 (1,11,10) 0.549162
(1,11,1): (1,10,1) -0.217620 (1,11,2) 0.164725 (1,12,1) 3.327860E-02
(1,11,2): (1,10,2) -0.409038 (1,11,1) -0.164725 (1,11,3) 0.389948 (1,12,2) 5.655135E-02
(1,11,3): (1,10,3) -0.811534 (1,11,2) -0.389948 (1,11,4) 0.789598 (1,12,3) 5.956884E-02
(1,11,4): (1,10,4) -1.11090 (1,11,3) -0.789598 (1,11,5) 1.35443 (1,12,4) -0.130150
(1,11,5): (1,10,5) 1.16536 (1,11,4) -1.35443 (1,11,6) 1.129674E-03 (1,12,5) -0.818255
(1,11,6): (1,10,6) -0.493047 (1,11,5) -1.129674E-03 (1,11,7) 1.560756E-02 (1,12,6) -0.643727
(1,11,7): (1,10,7) 1.15992 (1,11,6) -1.560756E-02 (1,11,8) -1.32637 (1,12,7) -0.817934
(1,11,8): (1,10,8) -1.12913 (1,11,7) 1.32637 (1,11,9) -0.736561 (1,12,8) -0.127903
(1,11,9): (1,10,9) -0.864302 (1,11,8) 0.736561 (1,11,10) -0.294346 (1,12,9) 6.812134E-02
(1,11,10): (1,10,10) -0.549162 (1,11,9) 0.294346 (1,12,10) 8.057049E-02
(1,12,1): (1,11,1) -3.327860E-02 (1,12,2) 0.188028 (1,13,1) -7.952128E-02
(1,12,2): (1,11,2) -5.655135E-02 (1,12,1) -0.188028 (1,12,3) 0.392974 (1,13,2) -0.125205
(1,12,3): (1,11,3) -5.956884E-02 (1,12,2) -0.392974 (1,12,4) 0.598701 (1,13,3) -0.238354
(1,12,4): (1,11,4) 0.130150 (1,12,3) -0.598701 (1,12,5) 0.662855 (1,13,4) -0.458313
(1,12,5): (1,11,5) 0.818255 (1,12,4) -0.662855 (1,12,6) 0.174601 (1,13,5) -0.764546
(1,12,6): (1,11,6) 0.643727 (1,12,5) -0.174601 (1,12,7) -0.157520 (1,13,6) -0.810303
(1,12,7): (1,11,7) 0.817934 (1,12,6) 0.157520 (1,12,8) -0.633044 (1,13,7) -0.767888
(1,12,8): (1,11,8) 0.127903 (1,12,7) 0.633044 (1,12,9) -0.539427 (1,13,8) -0.467320
(1,12,9): (1,11,9) -6.812134E-02 (1,12,8) 0.539427 (1,12,10) -0.281871 (1,13,9) -0.258808
(1,12,10): (1,11,10) -8.057049E-02 (1,12,9) 0.281871 (1,13,10) -0.168655
(1,13,1): (1,12,1) 7.952128E-02 (1,13,2) 0.142316 (1,14,1) -9.870878E-02
(1,13,2): (1,12,2) 0.125205 (1,13,1) -0.142316 (1,13,3) 0.279654 (1,14,2) -0.149274
(1,13,3): (1,12,3) 0.238354 (1,13,2) -0.279654 (1,13,4) 0.378445 (1,14,3) -0.255012
(1,13,4): (1,12,4) 0.458313 (1,13,3) -0.378445 (1,13,5) 0.356917 (1,14,4) -0.411916
(1,13,5): (1,12,5) 0.764546 (1,13,4) -0.356917 (1,13,6) 0.129114 (1,14,5) -0.573716
(1,13,6): (1,12,6) 0.810303 (1,13,5) -0.129114 (1,13,7) -0.115362 (1,14,6) -0.626182
(1,13,7): (1,12,7) 0.767888 (1,13,6) 0.115362 (1,13,8) -0.332860 (1,14,7) -0.577736
(1,13,8): (1,12,8) 0.467320 (1,13,7) 0.332860 (1,13,9) -0.330770 (1,14,8) -0.423098
(1,13,9): (1,12,9) 0.258808 (1,13,8) 0.330770 (1,13,10) -0.191698 (1,14,9) -0.280919
(1,13,10): (1,12,10) 0.168655 (1,13,9) 0.191698 (1,14,10) -0.203915
(1,14,1): (1,13,1) 9.870878E-02 (1,14,2) 9.175439E-02 (1,15,1) -6.033848E-02
(1,14,2): (1,13,2) 0.149274 (1,14,1) -9.175439E-02 (1,14,3) 0.173891 (1,15,2) -8.918699E-02
(1,14,3): (1,13,3) 0.255012 (1,14,2) -0.173891 (1,14,4) 0.221591 (1,15,3) -0.146357
(1,14,4): (1,13,4) 0.411916 (1,14,3) -0.221591 (1,14,5) 0.195455 (1,15,4) -0.223927
(1,14,5): (1,13,5) 0.573716 (1,14,4) -0.195455 (1,14,6) 7.689692E-02 (1,15,5) -0.296303
(1,14,6): (1,13,6) 0.626182 (1,14,5) -7.689692E-02 (1,14,7) -6.715255E-02 (1,15,6) -0.323599
(1,14,7): (1,13,7) 0.577736 (1,14,6) 6.715255E-02 (1,14,8) -0.178586 (1,15,7) -0.298791
(1,14,8): (1,13,8) 0.423098 (1,14,7) 0.178586 (1,14,9) -0.188719 (1,15,8) -0.230860
(1,14,9): (1,13,9) 0.280919 (1,14,8) 0.188719 (1,14,10) -0.114761 (1,15,9) -0.162346
(1,14,10): (1,13,10) 0.203915 (1,14,9) 0.114761 (1,15,10) -0.122422
(1,15,1): (1,14,1) 6.033848E-02 (1,15,2) 6.290515E-02
(1,15,2): (1,14,2) 8.918699E-02 (1,15,1) -6.290515E-02 (1,15,3) 0.116705
(1,15,3): (1,14,3) 0.146357 (1,15,2) -0.116705 (1,15,4) 0.144023
(1,15,4): (1,14,4) 0.223927 (1,15,3) -0.144023 (1,15,5) 0.123151
(1,15,5): (1,14,5) 0.296303 (1,15,4) -0.123151 (1,15,6) 4.966643E-02
(1,15,6): (1,14,6) 0.323599 (1,15,5) -4.966643E-02 (1,15,7) -4.240644E-02
(1,15,7): (1,14,7) 0.298791 (1,15,6) 4.240644E-02 (1,15,8) -0.110735
(1,15,8): (1,14,8) 0.230860 (1,15,7) 0.110735 (1,15,9) -0.120233
(1,15,9): (1,14,9) 0.162346 (1,15,8) 0.120233 (1,15,10) -7.485508E-02
(1,15,10): (1,14,10) 0.122422 (1,15,9) 7.485508E-02

 WEL PACKAGE (WEL-1) FLOW RATES   PERIOD      2   STEP       77
 ----------------------------------------------------------------------------------------
   NUMBER   CELLID                    RATE       NAME                                    
 ----------------------------------------------------------------------------------------
     1      (1,8,6)              -201.82275      WEL                                     
 ----------------------------------------------------------------------------------------




 API PACKAGE (MAR) FLOW RATES   PERIOD      2   STEP       77
 -----------------------------------------------
   NUMBER   CELLID                    RATE      
 -----------------------------------------------
     1      (1,6,5)               46.666667     
     2      (1,6,6)               46.666667     
     3      (1,6,7)               46.666667     
     4      (1,10,5)              20.607583     
     5      (1,10,6)              20.607583     
     6      (1,10,7)              20.607583     
 -----------------------------------------------



1
  HEAD IN LAYER   1 AT END OF TIME STEP  77 IN STRESS PERIOD    2
  ---------------------------------------------------------------------------

            1           2           3           4           5           6           7           8           9          10
 ........................................................................................................................
   1   2.1292E-02  3.0640E-02  4.8475E-02  7.1324E-02  9.1579E-02  9.9853E-02  9.2485E-02  7.3824E-02  5.4154E-02  4.2185E-02
   2   3.0987E-02  4.5995E-02  7.5581E-02  0.1153      0.1523      0.1672      0.1535      0.1189      8.3761E-02  6.3114E-02
   3   4.8697E-02  7.5345E-02  0.1305      0.2102      0.2906      0.3219      0.2924      0.2155      0.1431      0.1028    
   4   6.8271E-02  0.1109      0.2058      0.3596      0.5383      0.6000      0.5408      0.3666      0.2231      0.1501    
   5   7.6398E-02  0.1312      0.2674      0.5359      0.9512       1.048      0.9537      0.5434      0.2863      0.1756    
   6   5.6810E-02  9.9661E-02  0.2275      0.5921       1.679       1.696       1.681      0.5977      0.2415      0.1321    
   7   9.7407E-03 -3.0099E-03 -4.6959E-02 -0.1703     -0.5049      -1.597     -0.5038     -0.1679     -4.3386E-02 -1.2843E-03
   8  -2.4900E-02 -8.1027E-02 -0.2639     -0.8029      -2.463      -8.657      -2.462     -0.8030     -0.2682     -0.1024    
   9  -1.6636E-02 -5.7528E-02 -0.1780     -0.4689      -1.094      -2.299      -1.094     -0.4685     -0.1806     -7.3093E-02
  10   1.4888E-02  1.2268E-02  1.1181E-02  6.0002E-02  0.4126      0.2530      0.4137      6.2625E-02  1.5649E-02  1.7550E-02
  11   3.6571E-02  5.2957E-02  9.1598E-02  0.1692      0.3007      0.3008      0.3024      0.1736      0.1012      7.2073E-02
  12   3.9886E-02  5.8579E-02  9.7497E-02  0.1564      0.2213      0.2383      0.2230      0.1610      0.1080      8.0066E-02
  13   3.1965E-02  4.6131E-02  7.3892E-02  0.1113      0.1465      0.1592      0.1478      0.1150      8.2348E-02  6.3335E-02
  14   2.2126E-02  3.1273E-02  4.8578E-02  7.0581E-02  8.9953E-02  9.7568E-02  9.0918E-02  7.3220E-02  5.4485E-02  4.3071E-02
  15   1.6105E-02  2.2382E-02  3.4013E-02  4.8346E-02  6.0587E-02  6.5521E-02  6.1308E-02  5.0302E-02  3.8339E-02  3.0882E-02

 HEAD WILL BE SAVED ON UNIT 1043 AT END OF TIME STEP   77, STRESS PERIOD    2


  VOLUME BUDGET FOR ENTIRE MODEL AT END OF TIME STEP   77, STRESS PERIOD   2
  ---------------------------------------------------------------------------------------------------

     CUMULATIVE VOLUME      L**3       RATES FOR THIS TIME STEP      L**3/T          PACKAGE NAME    
     ------------------                 ------------------------                     ----------------

           IN:                                      IN:
           ---                                      ---
              STO-SS =          25.5405                STO-SS =       1.4555E-02     STORAGE                          
              STO-SY =       60437.5243                STO-SY =          30.0746     STORAGE                          
                 WEL =           0.0000                   WEL =           0.0000     WEL-1                            
                 API =      173870.9852                   API =         201.8227     MAR                              
                 CHD =       2.8247E-08                   CHD =           0.0000     CHD_0                            

            TOTAL IN =      234334.0499              TOTAL IN =         231.9119

          OUT:                                     OUT:
          ----                                     ----
              STO-SS =          31.3382                STO-SS =       1.5427E-02     STORAGE                          
              STO-SY =       60431.7266                STO-SY =          30.0738     STORAGE                          
                 WEL =      173870.9851                   WEL =         201.8227     WEL-1                            
                 API =           0.0000                   API =           0.0000     MAR                              
                 CHD =       3.0388E-08                   CHD =           0.0000     CHD_0                            

           TOTAL OUT =      234334.0499             TOTAL OUT =         231.9119

            IN - OUT =       2.8303E-06              IN - OUT =       1.0351E-08

 PERCENT DISCREPANCY =           0.00     PERCENT DISCREPANCY =           0.00




         TIME SUMMARY AT END OF TIME STEP   77 IN STRESS PERIOD    2
                    SECONDS     MINUTES      HOURS       DAYS        YEARS
                    -----------------------------------------------------------
   TIME STEP LENGTH 8.64000E+05  14400.      240.00      10.000     2.73785E-02
 STRESS PERIOD TIME 6.65280E+07 1.10880E+06  18480.      770.00      2.1081    
         TOTAL TIME 6.66144E+07 1.11024E+06  18504.      771.00      2.1109    


end timestep


start timestep kper="2" kstp="78" mode="normal"

 UBDSV1 SAVING           STO-SS ON UNIT   1042 AT TIME STEP     78, STRESS PERIOD      2
 UBDSV1 SAVING           STO-SY ON UNIT   1042 AT TIME STEP     78, STRESS PERIOD      2
 UBDSV1 SAVING     FLOW-JA-FACE ON UNIT   1042 AT TIME STEP     78, STRESS PERIOD      2
 UBDSV06 SAVING       DATA-SPDIS IN MODEL GWF              PACKAGE NPF             CONNECTED TO MODEL GWF              PACKAGE NPF              ON UNIT   1042 AT TIME STEP     78, STRESS PERIOD      2
 UBDSV06 SAVING              WEL IN MODEL GWF              PACKAGE GWF             CONNECTED TO MODEL GWF              PACKAGE WEL-1            ON UNIT   1042 AT TIME STEP     78, STRESS PERIOD      2
 UBDSV06 SAVING              API IN MODEL GWF              PACKAGE GWF             CONNECTED TO MODEL GWF              PACKAGE MAR              ON UNIT   1042 AT TIME STEP     78, STRESS PERIOD      2
 UBDSV06 SAVING              CHD IN MODEL GWF              PACKAGE GWF             CONNECTED TO MODEL GWF              PACKAGE CHD_0            ON UNIT   1042 AT TIME STEP     78, STRESS PERIOD      2

    CALCULATED INTERCELL FLOW FOR PERIOD 2 STEP 78
(1,1,1): (1,1,2) 9.621359E-02 (1,2,1) 9.925585E-02
(1,1,2): (1,1,1) -9.621359E-02 (1,1,3) 0.183449 (1,2,2) 0.156677
(1,1,3): (1,1,2) -0.183449 (1,1,4) 0.234931 (1,2,3) 0.276235
(1,1,4): (1,1,3) -0.234931 (1,1,5) 0.208252 (1,2,4) 0.448980
(1,1,5): (1,1,4) -0.208252 (1,1,6) 8.518044E-02 (1,2,5) 0.620695
(1,1,6): (1,1,5) -8.518044E-02 (1,1,7) -7.547582E-02 (1,2,6) 0.689782
(1,1,7): (1,1,6) 7.547582E-02 (1,1,8) -0.191357 (1,2,7) 0.624486
(1,1,8): (1,1,7) 0.191357 (1,1,9) -0.201638 (1,2,8) 0.459791
(1,1,9): (1,1,8) 0.201638 (1,1,10) -0.122601 (1,2,9) 0.302236
(1,1,10): (1,1,9) 0.122601 (1,2,10) 0.213953
(1,2,1): (1,1,1) -9.925585E-02 (1,2,2) 0.153633 (1,3,1) 0.180717
(1,2,2): (1,1,2) -0.156677 (1,2,1) -0.153633 (1,2,3) 0.303038 (1,3,2) 0.298943
(1,2,3): (1,1,3) -0.276235 (1,2,2) -0.303038 (1,2,4) 0.407608 (1,3,3) 0.560387
(1,2,4): (1,1,4) -0.448980 (1,2,3) -0.407608 (1,2,5) 0.379569 (1,3,4) 0.973950
(1,2,5): (1,1,5) -0.620695 (1,2,4) -0.379569 (1,2,6) 0.153914 (1,3,5) 1.42847
(1,2,6): (1,1,6) -0.689782 (1,2,5) -0.153914 (1,2,7) -0.140430 (1,3,6) 1.60198
(1,2,7): (1,1,7) -0.624486 (1,2,6) 0.140430 (1,2,8) -0.355626 (1,3,7) 1.43509
(1,2,8): (1,1,8) -0.459791 (1,2,7) 0.355626 (1,2,9) -0.359039 (1,3,8) 0.992947
(1,2,9): (1,1,9) -0.302236 (1,2,8) 0.359039 (1,2,10) -0.210805 (1,3,9) 0.607012
(1,2,10): (1,1,10) -0.213953 (1,2,9) 0.210805 (1,3,10) 0.405393
(1,3,1): (1,2,1) -0.180717 (1,3,2) 0.271827 (1,4,1) 0.198447
(1,3,2): (1,2,2) -0.298943 (1,3,1) -0.271827 (1,3,3) 0.564493 (1,4,2) 0.361258
(1,3,3): (1,2,3) -0.560387 (1,3,2) -0.564493 (1,3,4) 0.820569 (1,4,3) 0.769605
(1,3,4): (1,2,4) -0.973950 (1,3,3) -0.820569 (1,3,5) 0.831569 (1,4,4) 1.54798
(1,3,5): (1,2,5) -1.42847 (1,3,4) -0.831569 (1,3,6) 0.325404 (1,4,5) 2.61126
(1,3,6): (1,2,6) -1.60198 (1,3,5) -0.325404 (1,3,7) -0.305340 (1,4,6) 2.94830
(1,3,7): (1,2,7) -1.43509 (1,3,6) 0.305340 (1,3,8) -0.795148 (1,4,7) 2.61804
(1,3,8): (1,2,8) -0.992947 (1,3,7) 0.795148 (1,3,9) -0.744064 (1,4,8) 1.56739
(1,3,9): (1,2,9) -0.607012 (1,3,8) 0.744064 (1,3,10) -0.412045 (1,4,9) 0.818966
(1,3,10): (1,2,10) -0.405393 (1,3,9) 0.412045 (1,4,10) 0.482144
(1,4,1): (1,3,1) -0.198447 (1,4,2) 0.434754 (1,5,1) 7.978147E-02
(1,4,2): (1,3,2) -0.361258 (1,4,1) -0.434754 (1,4,3) 0.973633 (1,5,2) 0.201868
(1,4,3): (1,3,3) -0.769605 (1,4,2) -0.973633 (1,4,4) 1.59931 (1,5,3) 0.627494
(1,4,4): (1,3,4) -1.54798 (1,4,3) -1.59931 (1,4,5) 1.88810 (1,5,4) 1.85056
(1,4,5): (1,3,5) -2.61126 (1,4,4) -1.88810 (1,4,6) 0.655892 (1,5,5) 4.51215
(1,4,6): (1,3,6) -2.94830 (1,4,5) -0.655892 (1,4,7) -0.629094 (1,5,6) 4.93739
(1,4,7): (1,3,7) -2.61804 (1,4,6) 0.629094 (1,4,8) -1.83862 (1,5,7) 4.51455
(1,4,8): (1,3,8) -1.56739 (1,4,7) 1.83862 (1,4,9) -1.49197 (1,5,8) 1.85654
(1,4,9): (1,3,9) -0.818966 (1,4,8) 1.49197 (1,4,10) -0.748643 (1,5,9) 0.644245
(1,4,10): (1,3,10) -0.482144 (1,4,9) 0.748643 (1,5,10) 0.254572
(1,5,1): (1,4,1) -7.978147E-02 (1,5,2) 0.557262 (1,6,1) -0.203404
(1,5,2): (1,4,2) -0.201868 (1,5,1) -0.557262 (1,5,3) 1.40237 (1,6,2) -0.327585
(1,5,3): (1,4,3) -0.627494 (1,5,2) -1.40237 (1,5,4) 2.83305 (1,6,3) -0.421532
(1,5,4): (1,4,4) -1.85056 (1,5,3) -2.83305 (1,5,5) 4.55052 (1,6,4) 0.579352
(1,5,5): (1,4,5) -4.51215 (1,5,4) -4.55052 (1,5,6) 1.06892 (1,6,5) 8.47983
(1,5,6): (1,4,6) -4.93739 (1,5,5) -1.06892 (1,5,7) -1.03967 (1,6,6) 7.56026
(1,5,7): (1,4,7) -4.51455 (1,5,6) 1.03967 (1,5,8) -4.49624 (1,6,7) 8.47373
(1,5,8): (1,4,8) -1.85654 (1,5,7) 4.49624 (1,5,9) -2.71348 (1,6,8) 0.559519
(1,5,9): (1,4,9) -0.644245 (1,5,8) 2.71348 (1,5,10) -1.14013 (1,6,9) -0.474380
(1,5,10): (1,4,10) -0.254572 (1,5,9) 1.14013 (1,6,10) -0.454256
(1,6,1): (1,5,1) 0.203404 (1,6,2) 0.432805 (1,7,1) -0.481299
(1,6,2): (1,5,2) 0.327585 (1,6,1) -0.432805 (1,6,3) 1.30759 (1,7,2) -1.04760
(1,6,3): (1,5,3) 0.421532 (1,6,2) -1.30759 (1,6,4) 3.86192 (1,7,3) -2.82224
(1,6,4): (1,5,4) -0.579352 (1,6,3) -3.86192 (1,6,5) 12.6932 (1,7,4) -8.09486
(1,6,5): (1,5,5) -8.47983 (1,6,4) -12.6932 (1,6,6) 0.199489 (1,7,5) -25.5242
(1,6,6): (1,5,6) -7.56026 (1,6,5) -0.199489 (1,6,7) -0.176090 (1,7,6) -38.5293
(1,6,7): (1,5,7) -8.47373 (1,6,6) 0.176090 (1,6,8) -12.6510 (1,7,7) -25.5381
(1,6,8): (1,5,8) -0.559519 (1,6,7) 12.6510 (1,6,9) -3.77526 (1,7,8) -8.13401
(1,6,9): (1,5,9) 0.474380 (1,6,8) 3.77526 (1,6,10) -1.11991 (1,7,9) -2.93473
(1,6,10): (1,5,10) 0.454256 (1,6,9) 1.11991 (1,7,10) -1.36599
(1,7,1): (1,6,1) 0.481299 (1,7,2) -0.130261 (1,8,1) -0.353227
(1,7,2): (1,6,2) 1.04760 (1,7,1) 0.130261 (1,7,3) -0.443528 (1,8,2) -0.789132
(1,7,3): (1,6,3) 2.82224 (1,7,2) 0.443528 (1,7,4) -1.23088 (1,8,3) -2.17346
(1,7,4): (1,6,4) 8.09486 (1,7,3) 1.23088 (1,7,5) -3.28670 (1,8,4) -6.23754
(1,7,5): (1,6,5) 25.5242 (1,7,4) 3.28670 (1,7,6) -10.3641 (1,8,5) -18.6109
(1,7,6): (1,6,6) 38.5293 (1,7,5) 10.3641 (1,7,7) 10.3766 (1,8,6) -59.3229
(1,7,7): (1,6,7) 25.5381 (1,7,6) -10.3766 (1,7,8) 3.30075 (1,8,7) -18.6205
(1,7,8): (1,6,8) 8.13401 (1,7,7) -3.30075 (1,7,9) 1.24178 (1,8,8) -6.26533
(1,7,9): (1,6,9) 2.93473 (1,7,8) -1.24178 (1,7,10) 0.423749 (1,8,9) -2.25463
(1,7,10): (1,6,10) 1.36599 (1,7,9) -0.423749 (1,8,10) -1.02417
(1,8,1): (1,7,1) 0.353227 (1,8,2) -0.565195 (1,9,1) 8.021341E-02
(1,8,2): (1,7,2) 0.789132 (1,8,1) 0.565195 (1,8,3) -1.82303 (1,9,2) 0.229378
(1,8,3): (1,7,3) 2.17346 (1,8,2) 1.82303 (1,8,4) -5.25554 (1,9,3) 0.834751
(1,8,4): (1,7,4) 6.23754 (1,8,3) 5.25554 (1,8,5) -15.2621 (1,9,4) 3.16616
(1,8,5): (1,7,5) 18.6109 (1,8,4) 15.2621 (1,8,6) -46.6465 (1,9,5) 12.1535
(1,8,6): (1,7,6) 59.3229 (1,8,5) 46.6465 (1,8,7) 46.6521 (1,9,6) 48.8699
(1,8,7): (1,7,7) 18.6205 (1,8,6) -46.6521 (1,8,8) 15.2568 (1,9,7) 12.1552
(1,8,8): (1,7,8) 6.26533 (1,8,7) -15.2568 (1,8,9) 5.21069 (1,9,8) 3.17081
(1,8,9): (1,7,9) 2.25463 (1,8,8) -5.21069 (1,8,10) 1.64676 (1,9,9) 0.850666
(1,8,10): (1,7,10) 1.02417 (1,8,9) -1.64676 (1,9,10) 0.285620
(1,9,1): (1,8,1) -8.021341E-02 (1,9,2) -0.415525 (1,10,1) 0.318123
(1,9,2): (1,8,2) -0.229378 (1,9,1) 0.415525 (1,9,3) -1.21154 (1,10,2) 0.701085
(1,9,3): (1,8,3) -0.834751 (1,9,2) 1.21154 (1,9,4) -2.87279 (1,10,3) 1.89476
(1,9,4): (1,8,4) -3.16616 (1,9,3) 2.87279 (1,9,5) -5.97056 (1,10,4) 5.31436
(1,9,5): (1,8,5) -12.1535 (1,9,4) 5.97056 (1,9,6) -10.7284 (1,10,5) 15.6618
(1,9,6): (1,8,6) -48.8699 (1,9,5) 10.7284 (1,9,7) 10.7337 (1,10,6) 26.1266
(1,9,7): (1,8,7) -12.1552 (1,9,6) -10.7337 (1,9,8) 5.96901 (1,10,7) 15.6694
(1,9,8): (1,8,8) -3.17081 (1,9,7) -5.96901 (1,9,9) 2.84065 (1,10,8) 5.33856
(1,9,9): (1,8,9) -0.850666 (1,9,8) -2.84065 (1,9,10) 1.07710 (1,10,9) 1.96733
(1,9,10): (1,8,10) -0.285620 (1,9,9) -1.07710 (1,10,10) 0.911295
(1,10,1): (1,9,1) -0.318123 (1,10,2) -3.364929E-02 (1,11,1) 0.222811
(1,10,2): (1,9,2) -0.701085 (1,10,1) 3.364929E-02 (1,10,3) -2.590950E-02 (1,11,2) 0.416258
(1,10,3): (1,9,3) -1.89476 (1,10,2) 2.590950E-02 (1,10,4) 0.468943 (1,11,3) 0.822576
(1,10,4): (1,9,4) -5.31436 (1,10,3) -0.468943 (1,10,5) 3.64129 (1,11,4) 1.12784
(1,10,5): (1,9,5) -15.6618 (1,10,4) -3.64129 (1,10,6) -1.66899 (1,11,5) -1.13555
(1,10,6): (1,9,6) -26.1266 (1,10,5) 1.66899 (1,10,7) 1.68060 (1,11,6) 0.523120
(1,10,7): (1,9,7) -15.6694 (1,10,6) -1.68060 (1,10,8) -3.62599 (1,11,7) -1.12989
(1,10,8): (1,9,8) -5.33856 (1,10,7) 3.62599 (1,10,9) -0.451894 (1,11,8) 1.14668
(1,10,9): (1,9,9) -1.96733 (1,10,8) 0.451894 (1,10,10) 3.034825E-02 (1,11,9) 0.876731
(1,10,10): (1,9,10) -0.911295 (1,10,9) -3.034825E-02 (1,11,10) 0.559162
(1,11,1): (1,10,1) -0.222811 (1,11,2) 0.159318 (1,12,1) 3.808081E-02
(1,11,2): (1,10,2) -0.416258 (1,11,1) -0.159318 (1,11,3) 0.378650 (1,12,2) 6.408739E-02
(1,11,3): (1,10,3) -0.822576 (1,11,2) -0.378650 (1,11,4) 0.773186 (1,12,3) 7.250306E-02
(1,11,4): (1,10,4) -1.12784 (1,11,3) -0.773186 (1,11,5) 1.33720 (1,12,4) -0.109606
(1,11,5): (1,10,5) 1.13555 (1,11,4) -1.33720 (1,11,6) -4.699262E-03 (1,12,5) -0.789171
(1,11,6): (1,10,6) -0.523120 (1,11,5) 4.699262E-03 (1,11,7) 2.173466E-02 (1,12,6) -0.612110
(1,11,7): (1,10,7) 1.12989 (1,11,6) -2.173466E-02 (1,11,8) -1.30905 (1,12,7) -0.788694
(1,11,8): (1,10,8) -1.14668 (1,11,7) 1.30905 (1,11,9) -0.720757 (1,12,8) -0.106870
(1,11,9): (1,10,9) -0.876731 (1,11,8) 0.720757 (1,11,10) -0.285398 (1,12,9) 8.232178E-02
(1,11,10): (1,10,10) -0.559162 (1,11,9) 0.285398 (1,12,10) 9.096396E-02
(1,12,1): (1,11,1) -3.808081E-02 (1,12,2) 0.185355 (1,13,1) -7.700314E-02
(1,12,2): (1,11,2) -6.408739E-02 (1,12,1) -0.185355 (1,12,3) 0.387091 (1,13,2) -0.120579
(1,12,3): (1,11,3) -7.250306E-02 (1,12,2) -0.387091 (1,12,4) 0.589956 (1,13,3) -0.229512
(1,12,4): (1,11,4) 0.109606 (1,12,3) -0.589956 (1,12,5) 0.654131 (1,13,4) -0.443687
(1,12,5): (1,11,5) 0.789171 (1,12,4) -0.654131 (1,12,6) 0.171332 (1,13,5) -0.744324
(1,12,6): (1,11,6) 0.612110 (1,12,5) -0.171332 (1,12,7) -0.153799 (1,13,6) -0.787985
(1,12,7): (1,11,7) 0.788694 (1,12,6) 0.153799 (1,12,8) -0.623883 (1,13,7) -0.747629
(1,12,8): (1,11,8) 0.106870 (1,12,7) 0.623883 (1,12,9) -0.530506 (1,13,8) -0.452507
(1,12,9): (1,11,9) -8.232178E-02 (1,12,8) 0.530506 (1,12,10) -0.276739 (1,13,9) -0.249315
(1,12,10): (1,11,10) -9.096396E-02 (1,12,9) 0.276739 (1,13,10) -0.162273
(1,13,1): (1,12,1) 7.700314E-02 (1,13,2) 0.141752 (1,14,1) -9.824236E-02
(1,13,2): (1,12,2) 0.120579 (1,13,1) -0.141752 (1,13,3) 0.277990 (1,14,2) -0.147690
(1,13,3): (1,12,3) 0.229512 (1,13,2) -0.277990 (1,13,4) 0.375478 (1,14,3) -0.251137
(1,13,4): (1,12,4) 0.443687 (1,13,3) -0.375478 (1,13,5) 0.353751 (1,14,4) -0.404870
(1,13,5): (1,12,5) 0.744324 (1,13,4) -0.353751 (1,13,6) 0.127921 (1,14,5) -0.563687
(1,13,6): (1,12,6) 0.787985 (1,13,5) -0.127921 (1,13,7) -0.113680 (1,14,6) -0.614980
(1,13,7): (1,12,7) 0.747629 (1,13,6) 0.113680 (1,13,8) -0.329107 (1,14,7) -0.567752
(1,13,8): (1,12,8) 0.452507 (1,13,7) 0.329107 (1,13,9) -0.327162 (1,14,8) -0.416097
(1,13,9): (1,12,9) 0.249315 (1,13,8) 0.327162 (1,13,10) -0.189674 (1,14,9) -0.276942
(1,13,10): (1,12,10) 0.162273 (1,13,9) 0.189674 (1,14,10) -0.201728
(1,14,1): (1,13,1) 9.824236E-02 (1,14,2) 9.230729E-02 (1,15,1) -6.061591E-02
(1,14,2): (1,13,2) 0.147690 (1,14,1) -9.230729E-02 (1,14,3) 0.174516 (1,15,2) -8.906512E-02
(1,14,3): (1,13,3) 0.251137 (1,14,2) -0.174516 (1,14,4) 0.221788 (1,15,3) -0.145384
(1,14,4): (1,13,4) 0.404870 (1,14,3) -0.221788 (1,14,5) 0.195255 (1,15,4) -0.221740
(1,14,5): (1,13,5) 0.563687 (1,14,4) -0.195255 (1,14,6) 7.686712E-02 (1,15,5) -0.292966
(1,14,6): (1,13,6) 0.614980 (1,14,5) -7.686712E-02 (1,14,7) -6.667826E-02 (1,15,6) -0.319806
(1,14,7): (1,13,7) 0.567752 (1,14,6) 6.667826E-02 (1,14,8) -0.177800 (1,15,7) -0.295503
(1,14,8): (1,13,8) 0.416097 (1,14,7) 0.177800 (1,14,9) -0.188127 (1,15,8) -0.228763
(1,14,9): (1,13,9) 0.276942 (1,14,8) 0.188127 (1,14,10) -0.114524 (1,15,9) -0.161462
(1,14,10): (1,13,10) 0.201728 (1,14,9) 0.114524 (1,15,10) -0.122253
(1,15,1): (1,14,1) 6.061591E-02 (1,15,2) 6.385717E-02
(1,15,2): (1,14,2) 8.906512E-02 (1,15,1) -6.385717E-02 (1,15,3) 0.118181
(1,15,3): (1,14,3) 0.145384 (1,15,2) -0.118181 (1,15,4) 0.145432
(1,15,4): (1,14,4) 0.221740 (1,15,3) -0.145432 (1,15,5) 0.124097
(1,15,5): (1,14,5) 0.292966 (1,15,4) -0.124097 (1,15,6) 5.009061E-02
(1,15,6): (1,14,6) 0.319806 (1,15,5) -5.009061E-02 (1,15,7) -4.243531E-02
(1,15,7): (1,14,7) 0.295503 (1,15,6) 4.243531E-02 (1,15,8) -0.111137
(1,15,8): (1,14,8) 0.228763 (1,15,7) 0.111137 (1,15,9) -0.120852
(1,15,9): (1,14,9) 0.161462 (1,15,8) 0.120852 (1,15,10) -7.533404E-02
(1,15,10): (1,14,10) 0.122253 (1,15,9) 7.533404E-02

 WEL PACKAGE (WEL-1) FLOW RATES   PERIOD      2   STEP       78
 ----------------------------------------------------------------------------------------
   NUMBER   CELLID                    RATE       NAME                                    
 ----------------------------------------------------------------------------------------
     1      (1,8,6)              -201.66646      WEL                                     
 ----------------------------------------------------------------------------------------




 API PACKAGE (MAR) FLOW RATES   PERIOD      2   STEP       78
 -----------------------------------------------
   NUMBER   CELLID                    RATE      
 -----------------------------------------------
     1      (1,6,5)               46.666667     
     2      (1,6,6)               46.666667     
     3      (1,6,7)               46.666667     
     4      (1,10,5)              20.555486     
     5      (1,10,6)              20.555486     
     6      (1,10,7)              20.555486     
 -----------------------------------------------



1
  HEAD IN LAYER   1 AT END OF TIME STEP  78 IN STRESS PERIOD    2
  ---------------------------------------------------------------------------

            1           2           3           4           5           6           7           8           9          10
 ........................................................................................................................
   1   2.2269E-02  3.1859E-02  5.0113E-02  7.3435E-02  9.4066E-02  0.1025      9.5026E-02  7.6071E-02  5.6059E-02  4.3867E-02
   2   3.2162E-02  4.7453E-02  7.7524E-02  0.1178      0.1552      0.1703      0.1565      0.1215      8.6025E-02  6.5124E-02
   3   5.0144E-02  7.7119E-02  0.1328      0.2132      0.2940      0.3255      0.2959      0.2187      0.1459      0.1052    
   4   6.9851E-02  0.1128      0.2082      0.3626      0.5417      0.6035      0.5442      0.3698      0.2259      0.1527    
   5   7.7767E-02  0.1328      0.2693      0.5382      0.9536       1.050      0.9562      0.5459      0.2886      0.1777    
   6   5.7584E-02  0.1004      0.2283      0.5929       1.680       1.697       1.682      0.5987      0.2425      0.1331    
   7   9.7297E-03 -3.2837E-03 -4.7651E-02 -0.1713     -0.5057      -1.597     -0.5045     -0.1688     -4.4076E-02 -1.6937E-03
   8  -2.5559E-02 -8.2223E-02 -0.2660     -0.8060      -2.466      -8.657      -2.466     -0.8061     -0.2705     -0.1041    
   9  -1.7523E-02 -5.9149E-02 -0.1810     -0.4736      -1.100      -2.306      -1.100     -0.4733     -0.1839     -7.5349E-02
  10   1.4244E-02  1.0884E-02  8.2956E-03  5.4934E-02  0.4049      0.2445      0.4060      5.7539E-02  1.2608E-02  1.5638E-02
  11   3.6444E-02  5.2293E-02  8.9821E-02  0.1659      0.2958      0.2953      0.2974      0.1703      9.9418E-02  7.1159E-02
  12   4.0237E-02  5.8664E-02  9.7002E-02  0.1551      0.2191      0.2358      0.2208      0.1598      0.1076      8.0184E-02
  13   3.2567E-02  4.6677E-02  7.4271E-02  0.1114      0.1463      0.1589      0.1477      0.1152      8.2897E-02  6.4085E-02
  14   2.2775E-02  3.1976E-02  4.9342E-02  7.1364E-02  9.0714E-02  9.8326E-02  9.1723E-02  7.4105E-02  5.5430E-02  4.4041E-02
  15   1.6727E-02  2.3098E-02  3.4875E-02  4.9347E-02  6.1681E-02  6.6657E-02  6.2441E-02  5.1396E-02  3.9373E-02  3.1869E-02

 HEAD WILL BE SAVED ON UNIT 1043 AT END OF TIME STEP   78, STRESS PERIOD    2


  VOLUME BUDGET FOR ENTIRE MODEL AT END OF TIME STEP   78, STRESS PERIOD   2
  ---------------------------------------------------------------------------------------------------

     CUMULATIVE VOLUME      L**3       RATES FOR THIS TIME STEP      L**3/T          PACKAGE NAME    
     ------------------                 ------------------------                     ----------------

           IN:                                      IN:
           ---                                      ---
              STO-SS =          25.6847                STO-SS =       1.4418E-02     STORAGE                          
              STO-SY =       60735.4065                STO-SY =          29.7882     STORAGE                          
                 WEL =           0.0000                   WEL =           0.0000     WEL-1                            
                 API =      175887.6498                   API =         201.6665     MAR                              
                 CHD =       2.8247E-08                   CHD =           0.0000     CHD_0                            

            TOTAL IN =      236648.7409              TOTAL IN =         231.4691

          OUT:                                     OUT:
          ----                                     ----
              STO-SS =          31.4911                STO-SS =       1.5281E-02     STORAGE                          
              STO-SY =       60729.6001                STO-SY =          29.7874     STORAGE                          
                 WEL =      175887.6497                   WEL =         201.6665     WEL-1                            
                 API =           0.0000                   API =           0.0000     MAR                              
                 CHD =       3.0388E-08                   CHD =           0.0000     CHD_0                            

           TOTAL OUT =      236648.7409             TOTAL OUT =         231.4691

            IN - OUT =       2.9339E-06              IN - OUT =       1.0363E-08

 PERCENT DISCREPANCY =           0.00     PERCENT DISCREPANCY =           0.00




         TIME SUMMARY AT END OF TIME STEP   78 IN STRESS PERIOD    2
                    SECONDS     MINUTES      HOURS       DAYS        YEARS
                    -----------------------------------------------------------
   TIME STEP LENGTH 8.64000E+05  14400.      240.00      10.000     2.73785E-02
 STRESS PERIOD TIME 6.73920E+07 1.12320E+06  18720.      780.00      2.1355    
         TOTAL TIME 6.74784E+07 1.12464E+06  18744.      781.00      2.1383    


end timestep


start timestep kper="2" kstp="79" mode="normal"

 UBDSV1 SAVING           STO-SS ON UNIT   1042 AT TIME STEP     79, STRESS PERIOD      2
 UBDSV1 SAVING           STO-SY ON UNIT   1042 AT TIME STEP     79, STRESS PERIOD      2
 UBDSV1 SAVING     FLOW-JA-FACE ON UNIT   1042 AT TIME STEP     79, STRESS PERIOD      2
 UBDSV06 SAVING       DATA-SPDIS IN MODEL GWF              PACKAGE NPF             CONNECTED TO MODEL GWF              PACKAGE NPF              ON UNIT   1042 AT TIME STEP     79, STRESS PERIOD      2
 UBDSV06 SAVING              WEL IN MODEL GWF              PACKAGE GWF             CONNECTED TO MODEL GWF              PACKAGE WEL-1            ON UNIT   1042 AT TIME STEP     79, STRESS PERIOD      2
 UBDSV06 SAVING              API IN MODEL GWF              PACKAGE GWF             CONNECTED TO MODEL GWF              PACKAGE MAR              ON UNIT   1042 AT TIME STEP     79, STRESS PERIOD      2
 UBDSV06 SAVING              CHD IN MODEL GWF              PACKAGE GWF             CONNECTED TO MODEL GWF              PACKAGE CHD_0            ON UNIT   1042 AT TIME STEP     79, STRESS PERIOD      2

    CALCULATED INTERCELL FLOW FOR PERIOD 2 STEP 79
(1,1,1): (1,1,2) 9.864203E-02 (1,2,1) 0.101212
(1,1,2): (1,1,1) -9.864203E-02 (1,1,3) 0.187660 (1,2,2) 0.159032
(1,1,3): (1,1,2) -0.187660 (1,1,4) 0.239703 (1,2,3) 0.279252
(1,1,4): (1,1,3) -0.239703 (1,1,5) 0.212068 (1,2,4) 0.452708
(1,1,5): (1,1,4) -0.212068 (1,1,6) 8.678455E-02 (1,2,5) 0.624968
(1,1,6): (1,1,5) -8.678455E-02 (1,1,7) -7.650325E-02 (1,2,6) 0.694294
(1,1,7): (1,1,6) 7.650325E-02 (1,1,8) -0.194331 (1,2,7) 0.628880
(1,1,8): (1,1,7) 0.194331 (1,1,9) -0.205061 (1,2,8) 0.463810
(1,1,9): (1,1,8) 0.205061 (1,1,10) -0.124835 (1,2,9) 0.305799
(1,1,10): (1,1,9) 0.124835 (1,2,10) 0.217206
(1,2,1): (1,1,1) -0.101212 (1,2,2) 0.156460 (1,3,1) 0.183394
(1,2,2): (1,1,2) -0.159032 (1,2,1) -0.156460 (1,2,3) 0.307914 (1,3,2) 0.302061
(1,2,3): (1,1,3) -0.279252 (1,2,2) -0.307914 (1,2,4) 0.413092 (1,3,3) 0.564207
(1,2,4): (1,1,4) -0.452708 (1,2,3) -0.413092 (1,2,5) 0.383929 (1,3,4) 0.978471
(1,2,5): (1,1,5) -0.624968 (1,2,4) -0.383929 (1,2,6) 0.155755 (1,3,5) 1.43349
(1,2,6): (1,1,6) -0.694294 (1,2,5) -0.155755 (1,2,7) -0.141572 (1,3,6) 1.60725
(1,2,7): (1,1,7) -0.628880 (1,2,6) 0.141572 (1,2,8) -0.358974 (1,3,7) 1.44030
(1,2,8): (1,1,8) -0.463810 (1,2,7) 0.358974 (1,2,9) -0.362917 (1,3,8) 0.997878
(1,2,9): (1,1,9) -0.305799 (1,2,8) 0.362917 (1,2,10) -0.213349 (1,3,9) 0.611575
(1,2,10): (1,1,10) -0.217206 (1,2,9) 0.213349 (1,3,10) 0.409687
(1,3,1): (1,2,1) -0.183394 (1,3,2) 0.275096 (1,4,1) 0.199707
(1,3,2): (1,2,2) -0.302061 (1,3,1) -0.275096 (1,3,3) 0.570075 (1,4,2) 0.362431
(1,3,3): (1,2,3) -0.564207 (1,3,2) -0.570075 (1,3,4) 0.826760 (1,4,3) 0.770547
(1,3,4): (1,2,4) -0.978471 (1,3,3) -0.826760 (1,3,5) 0.836432 (1,4,4) 1.54854
(1,3,5): (1,2,5) -1.43349 (1,3,4) -0.836432 (1,3,6) 0.327485 (1,4,5) 2.61144
(1,3,6): (1,2,6) -1.60725 (1,3,5) -0.327485 (1,3,7) -0.306546 (1,4,6) 2.94844
(1,3,7): (1,2,7) -1.44030 (1,3,6) 0.306546 (1,3,8) -0.798762 (1,4,7) 2.61834
(1,3,8): (1,2,8) -0.997878 (1,3,7) 0.798762 (1,3,9) -0.748307 (1,4,8) 1.56818
(1,3,9): (1,2,9) -0.611575 (1,3,8) 0.748307 (1,3,10) -0.414855 (1,4,9) 0.820249
(1,3,10): (1,2,10) -0.409687 (1,3,9) 0.414855 (1,4,10) 0.483715
(1,4,1): (1,3,1) -0.199707 (1,4,2) 0.437939 (1,5,1) 7.760080E-02
(1,4,2): (1,3,2) -0.362431 (1,4,1) -0.437939 (1,4,3) 0.979000 (1,5,2) 0.198604
(1,4,3): (1,3,3) -0.770547 (1,4,2) -0.979000 (1,4,4) 1.60516 (1,5,3) 0.622351
(1,4,4): (1,3,4) -1.54854 (1,4,3) -1.60516 (1,4,5) 1.89263 (1,5,4) 1.84333
(1,4,5): (1,3,5) -2.61144 (1,4,4) -1.89263 (1,4,6) 0.657935 (1,5,5) 4.50323
(1,4,6): (1,3,6) -2.94844 (1,4,5) -0.657935 (1,4,7) -0.630148 (1,5,6) 4.92813
(1,4,7): (1,3,7) -2.61834 (1,4,6) 0.630148 (1,4,8) -1.84177 (1,5,7) 4.50556
(1,4,8): (1,3,8) -1.56818 (1,4,7) 1.84177 (1,4,9) -1.49574 (1,5,8) 1.84906
(1,4,9): (1,3,9) -0.820249 (1,4,8) 1.49574 (1,4,10) -0.751169 (1,5,9) 0.638479
(1,4,10): (1,3,10) -0.483715 (1,4,9) 0.751169 (1,5,10) 0.249970
(1,5,1): (1,4,1) -7.760080E-02 (1,5,2) 0.559366 (1,6,1) -0.209439
(1,5,2): (1,4,2) -0.198604 (1,5,1) -0.559366 (1,5,3) 1.40587 (1,6,2) -0.335728
(1,5,3): (1,4,3) -0.622351 (1,5,2) -1.40587 (1,5,4) 2.83691 (1,6,3) -0.433146
(1,5,4): (1,4,4) -1.84333 (1,5,3) -2.83691 (1,5,5) 4.55361 (1,6,4) 0.564381
(1,5,5): (1,4,5) -4.50323 (1,5,4) -4.55361 (1,5,6) 1.07068 (1,6,5) 8.46232
(1,5,6): (1,4,6) -4.92813 (1,5,5) -1.07068 (1,5,7) -1.04051 (1,6,6) 7.54302
(1,5,7): (1,4,7) -4.50556 (1,5,6) 1.04051 (1,5,8) -4.49810 (1,6,7) 8.45593
(1,5,8): (1,4,8) -1.84906 (1,5,7) 4.49810 (1,5,9) -2.71563 (1,6,8) 0.543776
(1,5,9): (1,4,9) -0.638479 (1,5,8) 2.71563 (1,5,10) -1.14151 (1,6,9) -0.487674
(1,5,10): (1,4,10) -0.249970 (1,5,9) 1.14151 (1,6,10) -0.465624
(1,6,1): (1,5,1) 0.209439 (1,6,2) 0.432805 (1,7,1) -0.489197
(1,6,2): (1,5,2) 0.335728 (1,6,1) -0.432805 (1,6,3) 1.30760 (1,7,2) -1.05814
(1,6,3): (1,5,3) 0.433146 (1,6,2) -1.30760 (1,6,4) 3.86238 (1,7,3) -2.83713
(1,6,4): (1,5,4) -0.564381 (1,6,3) -3.86238 (1,6,5) 12.6948 (1,7,4) -8.11386
(1,6,5): (1,5,5) -8.46232 (1,6,4) -12.6948 (1,6,6) 0.201372 (1,7,5) -25.5450
(1,6,6): (1,5,6) -7.54302 (1,6,5) -0.201372 (1,6,7) -0.177330 (1,7,6) -38.5471
(1,6,7): (1,5,7) -8.45593 (1,6,6) 0.177330 (1,6,8) -12.6518 (1,7,7) -25.5593
(1,6,8): (1,5,8) -0.543776 (1,6,7) 12.6518 (1,6,9) -3.77492 (1,7,8) -8.15401
(1,6,9): (1,5,9) 0.487674 (1,6,8) 3.77492 (1,6,10) -1.11936 (1,7,9) -2.95178
(1,6,10): (1,5,10) 0.465624 (1,6,9) 1.11936 (1,7,10) -1.38065
(1,7,1): (1,6,1) 0.489197 (1,7,2) -0.132838 (1,8,1) -0.359704
(1,7,2): (1,6,2) 1.05814 (1,7,1) 0.132838 (1,7,3) -0.447582 (1,8,2) -0.798260
(1,7,3): (1,6,3) 2.83713 (1,7,2) 0.447582 (1,7,4) -1.23365 (1,8,3) -2.18732
(1,7,4): (1,6,4) 8.11386 (1,7,3) 1.23365 (1,7,5) -3.28468 (1,8,4) -6.25641
(1,7,5): (1,6,5) 25.5450 (1,7,4) 3.28468 (1,7,6) -10.3581 (1,8,5) -18.6305
(1,7,6): (1,6,6) 38.5471 (1,7,5) 10.3581 (1,7,7) 10.3709 (1,8,6) -59.3262
(1,7,7): (1,6,7) 25.5593 (1,7,6) -10.3709 (1,7,8) 3.29885 (1,8,7) -18.6405
(1,7,8): (1,6,8) 8.15401 (1,7,7) -3.29885 (1,7,9) 1.24416 (1,8,8) -6.28499
(1,7,9): (1,6,9) 2.95178 (1,7,8) -1.24416 (1,7,10) 0.426413 (1,8,9) -2.27023
(1,7,10): (1,6,10) 1.38065 (1,7,9) -0.426413 (1,8,10) -1.03677
(1,8,1): (1,7,1) 0.359704 (1,8,2) -0.570398 (1,9,1) 7.784995E-02
(1,8,2): (1,7,2) 0.798260 (1,8,1) 0.570398 (1,8,3) -1.83173 (1,9,2) 0.225071
(1,8,3): (1,7,3) 2.18732 (1,8,2) 1.83173 (1,8,4) -5.26280 (1,9,3) 0.825842
(1,8,4): (1,7,4) 6.25641 (1,8,3) 5.26280 (1,8,5) -15.2579 (1,9,4) 3.14831
(1,8,5): (1,7,5) 18.6305 (1,8,4) 15.2579 (1,8,6) -46.6114 (1,9,5) 12.1177
(1,8,6): (1,7,6) 59.3262 (1,8,5) 46.6114 (1,8,7) 46.6170 (1,9,6) 48.7885
(1,8,7): (1,7,7) 18.6405 (1,8,6) -46.6170 (1,8,8) 15.2522 (1,9,7) 12.1193
(1,8,8): (1,7,8) 6.28499 (1,8,7) -15.2522 (1,8,9) 5.21653 (1,9,8) 3.15273
(1,8,9): (1,7,9) 2.27023 (1,8,8) -5.21653 (1,8,10) 1.65228 (1,9,9) 0.841159
(1,8,10): (1,7,10) 1.03677 (1,8,9) -1.65228 (1,9,10) 0.279804
(1,9,1): (1,8,1) -7.784995E-02 (1,9,2) -0.422665 (1,10,1) 0.320435
(1,9,2): (1,8,2) -0.225071 (1,9,1) 0.422665 (1,9,3) -1.22478 (1,10,2) 0.703210
(1,9,3): (1,8,3) -0.825842 (1,9,2) 1.22478 (1,9,4) -2.88853 (1,10,3) 1.89524
(1,9,4): (1,8,4) -3.14831 (1,9,3) 2.88853 (1,9,5) -5.98148 (1,10,4) 5.30835
(1,9,5): (1,8,5) -12.1177 (1,9,4) 5.98148 (1,9,6) -10.7224 (1,10,5) 15.6347
(1,9,6): (1,8,6) -48.7885 (1,9,5) 10.7224 (1,9,7) 10.7276 (1,10,6) 26.0844
(1,9,7): (1,8,7) -12.1193 (1,9,6) -10.7276 (1,9,8) 5.97939 (1,10,7) 15.6425
(1,9,8): (1,8,8) -3.15273 (1,9,7) -5.97939 (1,9,9) 2.85461 (1,10,8) 5.33289
(1,9,9): (1,8,9) -0.841159 (1,9,8) -2.85461 (1,9,10) 1.08625 (1,10,9) 1.96846
(1,9,10): (1,8,10) -0.279804 (1,9,9) -1.08625 (1,10,10) 0.914369
(1,10,1): (1,9,1) -0.320435 (1,10,2) -4.095844E-02 (1,11,1) 0.227942
(1,10,2): (1,9,2) -0.703210 (1,10,1) 4.095844E-02 (1,10,3) -4.063442E-02 (1,11,2) 0.423331
(1,10,3): (1,9,3) -1.89524 (1,10,2) 4.063442E-02 (1,10,4) 0.447313 (1,11,3) 0.833297
(1,10,4): (1,9,4) -5.30835 (1,10,3) -0.447313 (1,10,5) 3.61143 (1,11,4) 1.14421
(1,10,5): (1,9,5) -15.6347 (1,10,4) -3.61143 (1,10,6) -1.67516 (1,11,5) -1.10674
(1,10,6): (1,9,6) -26.0844 (1,10,5) 1.67516 (1,10,7) 1.68683 (1,11,6) 0.552163
(1,10,7): (1,9,7) -15.6425 (1,10,6) -1.68683 (1,10,8) -3.59645 (1,11,7) -1.10085
(1,10,8): (1,9,8) -5.33289 (1,10,7) 3.59645 (1,10,9) -0.431681 (1,11,8) 1.16365
(1,10,9): (1,9,9) -1.96846 (1,10,8) 0.431681 (1,10,10) 4.134448E-02 (1,11,9) 0.888827
(1,10,10): (1,9,10) -0.914369 (1,10,9) -4.134448E-02 (1,11,10) 0.568960
(1,11,1): (1,10,1) -0.227942 (1,11,2) 0.153927 (1,12,1) 4.292072E-02
(1,11,2): (1,10,2) -0.423331 (1,11,1) -0.153927 (1,11,3) 0.367479 (1,12,2) 7.159178E-02
(1,11,3): (1,10,3) -0.833297 (1,11,2) -0.367479 (1,11,4) 0.757087 (1,12,3) 8.524709E-02
(1,11,4): (1,10,4) -1.14421 (1,11,3) -0.757087 (1,11,5) 1.32039 (1,12,4) -8.950826E-02
(1,11,5): (1,10,5) 1.10674 (1,11,4) -1.32039 (1,11,6) -1.038188E-02 (1,12,5) -0.760823
(1,11,6): (1,10,6) -0.552163 (1,11,5) 1.038188E-02 (1,11,7) 2.770142E-02 (1,12,6) -0.581318
(1,11,7): (1,10,7) 1.10085 (1,11,6) -2.770142E-02 (1,11,8) -1.29216 (1,12,7) -0.760182
(1,11,8): (1,10,8) -1.16365 (1,11,7) 1.29216 (1,11,9) -0.705316 (1,12,8) -8.627028E-02
(1,11,9): (1,10,9) -0.888827 (1,11,8) 0.705316 (1,11,10) -0.276628 (1,12,9) 9.634657E-02
(1,11,10): (1,10,10) -0.568960 (1,11,9) 0.276628 (1,12,10) 0.101321
(1,12,1): (1,11,1) -4.292072E-02 (1,12,2) 0.182630 (1,13,1) -7.437166E-02
(1,12,2): (1,11,2) -7.159178E-02 (1,12,1) -0.182630 (1,12,3) 0.381173 (1,13,2) -0.115859
(1,12,3): (1,11,3) -8.524709E-02 (1,12,2) -0.381173 (1,12,4) 0.581270 (1,13,3) -0.220643
(1,12,4): (1,11,4) 8.950826E-02 (1,12,3) -0.581270 (1,12,5) 0.645536 (1,13,4) -0.429167
(1,12,5): (1,11,5) 0.760823 (1,12,4) -0.645536 (1,12,6) 0.168121 (1,13,5) -0.724359
(1,12,6): (1,11,6) 0.581318 (1,12,5) -0.168121 (1,12,7) -0.150143 (1,13,6) -0.765982
(1,12,7): (1,11,7) 0.760182 (1,12,6) 0.150143 (1,12,8) -0.614873 (1,13,7) -0.727619
(1,12,8): (1,11,8) 8.627028E-02 (1,12,7) 0.614873 (1,12,9) -0.521693 (1,13,8) -0.437779
(1,12,9): (1,11,9) -9.634657E-02 (1,12,8) 0.521693 (1,12,10) -0.271645 (1,13,9) -0.239761
(1,12,10): (1,11,10) -0.101321 (1,12,9) 0.271645 (1,13,10) -0.155754
(1,13,1): (1,12,1) 7.437166E-02 (1,13,2) 0.141115 (1,14,1) -9.765623E-02
(1,13,2): (1,12,2) 0.115859 (1,13,1) -0.141115 (1,13,3) 0.276224 (1,14,2) -0.145972
(1,13,3): (1,12,3) 0.220643 (1,13,2) -0.276224 (1,13,4) 0.372440 (1,14,3) -0.247121
(1,13,4): (1,12,4) 0.429167 (1,13,3) -0.372440 (1,13,5) 0.350565 (1,14,4) -0.397707
(1,13,5): (1,12,5) 0.724359 (1,13,4) -0.350565 (1,13,6) 0.126728 (1,14,5) -0.553584
(1,13,6): (1,12,6) 0.765982 (1,13,5) -0.126728 (1,13,7) -0.111998 (1,14,6) -0.603722
(1,13,7): (1,12,7) 0.727619 (1,13,6) 0.111998 (1,13,8) -0.325344 (1,14,7) -0.557686
(1,13,8): (1,12,8) 0.437779 (1,13,7) 0.325344 (1,13,9) -0.323515 (1,14,8) -0.408961
(1,13,9): (1,12,9) 0.239761 (1,13,8) 0.323515 (1,13,10) -0.187611 (1,14,9) -0.272789
(1,13,10): (1,12,10) 0.155754 (1,13,9) 0.187611 (1,14,10) -0.199348
(1,14,1): (1,13,1) 9.765623E-02 (1,14,2) 9.280140E-02 (1,15,1) -6.082245E-02
(1,14,2): (1,13,2) 0.145972 (1,14,1) -9.280140E-02 (1,14,3) 0.175047 (1,15,2) -8.885515E-02
(1,14,3): (1,13,3) 0.247121 (1,14,2) -0.175047 (1,14,4) 0.221891 (1,15,3) -0.144299
(1,14,4): (1,13,4) 0.397707 (1,14,3) -0.221891 (1,14,5) 0.194993 (1,15,4) -0.219428
(1,14,5): (1,13,5) 0.553584 (1,14,4) -0.194993 (1,14,6) 7.681866E-02 (1,15,5) -0.289502
(1,14,6): (1,13,6) 0.603722 (1,14,5) -7.681866E-02 (1,14,7) -6.617883E-02 (1,15,6) -0.315886
(1,14,7): (1,13,7) 0.557686 (1,14,6) 6.617883E-02 (1,14,8) -0.176951 (1,15,7) -0.292085
(1,14,8): (1,13,8) 0.408961 (1,14,7) 0.176951 (1,14,9) -0.187456 (1,15,8) -0.226533
(1,14,9): (1,13,9) 0.272789 (1,14,8) 0.187456 (1,14,10) -0.114231 (1,15,9) -0.160446
(1,14,10): (1,13,10) 0.199348 (1,14,9) 0.114231 (1,15,10) -0.121959
(1,15,1): (1,14,1) 6.082245E-02 (1,15,2) 6.476760E-02
(1,15,2): (1,14,2) 8.885515E-02 (1,15,1) -6.476760E-02 (1,15,3) 0.119586
(1,15,3): (1,14,3) 0.144299 (1,15,2) -0.119586 (1,15,4) 0.146761
(1,15,4): (1,14,4) 0.219428 (1,15,3) -0.146761 (1,15,5) 0.124983
(1,15,5): (1,14,5) 0.289502 (1,15,4) -0.124983 (1,15,6) 5.049569E-02
(1,15,6): (1,14,6) 0.315886 (1,15,5) -5.049569E-02 (1,15,7) -4.243537E-02
(1,15,7): (1,14,7) 0.292085 (1,15,6) 4.243537E-02 (1,15,8) -0.111473
(1,15,8): (1,14,8) 0.226533 (1,15,7) 0.111473 (1,15,9) -0.121394
(1,15,9): (1,14,9) 0.160446 (1,15,8) 0.121394 (1,15,10) -7.576120E-02
(1,15,10): (1,14,10) 0.121959 (1,15,9) 7.576120E-02

 WEL PACKAGE (WEL-1) FLOW RATES   PERIOD      2   STEP       79
 ----------------------------------------------------------------------------------------
   NUMBER   CELLID                    RATE       NAME                                    
 ----------------------------------------------------------------------------------------
     1      (1,8,6)              -201.51388      WEL                                     
 ----------------------------------------------------------------------------------------




 API PACKAGE (MAR) FLOW RATES   PERIOD      2   STEP       79
 -----------------------------------------------
   NUMBER   CELLID                    RATE      
 -----------------------------------------------
     1      (1,6,5)               46.666667     
     2      (1,6,6)               46.666667     
     3      (1,6,7)               46.666667     
     4      (1,10,5)              20.504626     
     5      (1,10,6)              20.504626     
     6      (1,10,7)              20.504626     
 -----------------------------------------------



1
  HEAD IN LAYER   1 AT END OF TIME STEP  79 IN STRESS PERIOD    2
  ---------------------------------------------------------------------------

            1           2           3           4           5           6           7           8           9          10
 ........................................................................................................................
   1   2.3267E-02  3.3099E-02  5.1768E-02  7.5559E-02  9.6563E-02  0.1052      9.7580E-02  7.8335E-02  5.7988E-02  4.5577E-02
   2   3.3355E-02  4.8925E-02  7.9473E-02  0.1203      0.1581      0.1734      0.1595      0.1241      8.8301E-02  6.7152E-02
   3   5.1600E-02  7.8894E-02  0.1351      0.2161      0.2973      0.3290      0.2993      0.2218      0.1486      0.1077    
   4   7.1429E-02  0.1147      0.2106      0.3655      0.5449      0.6070      0.5476      0.3729      0.2288      0.1553    
   5   7.9128E-02  0.1343      0.2712      0.5403      0.9560       1.053      0.9587      0.5482      0.2908      0.1799    
   6   5.8349E-02  0.1012      0.2290      0.5936       1.680       1.698       1.683      0.5995      0.2434      0.1341    
   7   9.7130E-03 -3.5579E-03 -4.8332E-02 -0.1723     -0.5065      -1.598     -0.5053     -0.1697     -4.4756E-02 -2.1061E-03
   8  -2.6223E-02 -8.3412E-02 -0.2681     -0.8089      -2.469      -8.658      -2.469     -0.8091     -0.2728     -0.1058    
   9  -1.8423E-02 -6.0768E-02 -0.1840     -0.4783      -1.106      -2.312      -1.106     -0.4780     -0.1871     -7.7606E-02
  10   1.3577E-02  9.4867E-03  5.4271E-03  4.9936E-02  0.3973      0.2362      0.3984      5.2519E-02  9.5768E-03  1.3706E-02
  11   3.6289E-02  5.1602E-02  8.8030E-02  0.1625      0.2908      0.2898      0.2925      0.1670      9.7600E-02  7.0205E-02
  12   4.0563E-02  5.8720E-02  9.6473E-02  0.1537      0.2169      0.2333      0.2187      0.1585      0.1071      8.0256E-02
  13   3.3156E-02  4.7202E-02  7.4619E-02  0.1115      0.1460      0.1585      0.1475      0.1154      8.3411E-02  6.4805E-02
  14   2.3423E-02  3.2673E-02  5.0090E-02  7.2121E-02  9.1443E-02  9.9050E-02  9.2497E-02  7.4964E-02  5.6358E-02  4.4999E-02
  15   1.7355E-02  2.3816E-02  3.5732E-02  5.0335E-02  6.2755E-02  6.7771E-02  6.3556E-02  5.2479E-02  4.0403E-02  3.2857E-02

 HEAD WILL BE SAVED ON UNIT 1043 AT END OF TIME STEP   79, STRESS PERIOD    2


  VOLUME BUDGET FOR ENTIRE MODEL AT END OF TIME STEP   79, STRESS PERIOD   2
  ---------------------------------------------------------------------------------------------------

     CUMULATIVE VOLUME      L**3       RATES FOR THIS TIME STEP      L**3/T          PACKAGE NAME    
     ------------------                 ------------------------                     ----------------

           IN:                                      IN:
           ---                                      ---
              STO-SS =          25.8275                STO-SS =       1.4282E-02     STORAGE                          
              STO-SY =       61030.4546                STO-SY =          29.5048     STORAGE                          
                 WEL =           0.0000                   WEL =           0.0000     WEL-1                            
                 API =      177902.7885                   API =         201.5139     MAR                              
                 CHD =       2.8247E-08                   CHD =           0.0000     CHD_0                            

            TOTAL IN =      238959.0706              TOTAL IN =         231.0330

          OUT:                                     OUT:
          ----                                     ----
              STO-SS =          31.6424                STO-SS =       1.5137E-02     STORAGE                          
              STO-SY =       61024.6397                STO-SY =          29.5040     STORAGE                          
                 WEL =      177902.7885                   WEL =         201.5139     WEL-1                            
                 API =           0.0000                   API =           0.0000     MAR                              
                 CHD =       3.0388E-08                   CHD =           0.0000     CHD_0                            

           TOTAL OUT =      238959.0706             TOTAL OUT =         231.0330

            IN - OUT =       3.0374E-06              IN - OUT =       1.0349E-08

 PERCENT DISCREPANCY =           0.00     PERCENT DISCREPANCY =           0.00




         TIME SUMMARY AT END OF TIME STEP   79 IN STRESS PERIOD    2
                    SECONDS     MINUTES      HOURS       DAYS        YEARS
                    -----------------------------------------------------------
   TIME STEP LENGTH 8.64000E+05  14400.      240.00      10.000     2.73785E-02
 STRESS PERIOD TIME 6.82560E+07 1.13760E+06  18960.      790.00      2.1629    
         TOTAL TIME 6.83424E+07 1.13904E+06  18984.      791.00      2.1656    


end timestep


start timestep kper="2" kstp="80" mode="normal"

 UBDSV1 SAVING           STO-SS ON UNIT   1042 AT TIME STEP     80, STRESS PERIOD      2
 UBDSV1 SAVING           STO-SY ON UNIT   1042 AT TIME STEP     80, STRESS PERIOD      2
 UBDSV1 SAVING     FLOW-JA-FACE ON UNIT   1042 AT TIME STEP     80, STRESS PERIOD      2
 UBDSV06 SAVING       DATA-SPDIS IN MODEL GWF              PACKAGE NPF             CONNECTED TO MODEL GWF              PACKAGE NPF              ON UNIT   1042 AT TIME STEP     80, STRESS PERIOD      2
 UBDSV06 SAVING              WEL IN MODEL GWF              PACKAGE GWF             CONNECTED TO MODEL GWF              PACKAGE WEL-1            ON UNIT   1042 AT TIME STEP     80, STRESS PERIOD      2
 UBDSV06 SAVING              API IN MODEL GWF              PACKAGE GWF             CONNECTED TO MODEL GWF              PACKAGE MAR              ON UNIT   1042 AT TIME STEP     80, STRESS PERIOD      2
 UBDSV06 SAVING              CHD IN MODEL GWF              PACKAGE GWF             CONNECTED TO MODEL GWF              PACKAGE CHD_0            ON UNIT   1042 AT TIME STEP     80, STRESS PERIOD      2

    CALCULATED INTERCELL FLOW FOR PERIOD 2 STEP 80
(1,1,1): (1,1,2) 0.101058 (1,2,1) 0.103127
(1,1,2): (1,1,1) -0.101058 (1,1,3) 0.191844 (1,2,2) 0.161321
(1,1,3): (1,1,2) -0.191844 (1,1,4) 0.244435 (1,2,3) 0.282163
(1,1,4): (1,1,3) -0.244435 (1,1,5) 0.215849 (1,2,4) 0.456284
(1,1,5): (1,1,4) -0.215849 (1,1,6) 8.838028E-02 (1,2,5) 0.629052
(1,1,6): (1,1,5) -8.838028E-02 (1,1,7) -7.750242E-02 (1,2,6) 0.698604
(1,1,7): (1,1,6) 7.750242E-02 (1,1,8) -0.197249 (1,2,7) 0.633087
(1,1,8): (1,1,7) 0.197249 (1,1,9) -0.208425 (1,2,8) 0.467672
(1,1,9): (1,1,8) 0.208425 (1,1,10) -0.127033 (1,2,9) 0.309243
(1,1,10): (1,1,9) 0.127033 (1,2,10) 0.220364
(1,2,1): (1,1,1) -0.103127 (1,2,2) 0.159251 (1,3,1) 0.185986
(1,2,2): (1,1,2) -0.161321 (1,2,1) -0.159251 (1,2,3) 0.312722 (1,3,2) 0.305059
(1,2,3): (1,1,3) -0.282163 (1,2,2) -0.312722 (1,2,4) 0.418492 (1,3,3) 0.567846
(1,2,4): (1,1,4) -0.456284 (1,2,3) -0.418492 (1,2,5) 0.388219 (1,3,4) 0.982747
(1,2,5): (1,1,5) -0.629052 (1,2,4) -0.388219 (1,2,6) 0.157573 (1,3,5) 1.43823
(1,2,6): (1,1,6) -0.698604 (1,2,5) -0.157573 (1,2,7) -0.142673 (1,3,6) 1.61222
(1,2,7): (1,1,7) -0.633087 (1,2,6) 0.142673 (1,2,8) -0.362234 (1,3,7) 1.44520
(1,2,8): (1,1,8) -0.467672 (1,2,7) 0.362234 (1,2,9) -0.366699 (1,3,8) 1.00255
(1,2,9): (1,1,9) -0.309243 (1,2,8) 0.366699 (1,2,10) -0.215832 (1,3,9) 0.615932
(1,2,10): (1,1,10) -0.220364 (1,2,9) 0.215832 (1,3,10) 0.413807
(1,3,1): (1,2,1) -0.185986 (1,3,2) 0.278292 (1,4,1) 0.200863
(1,3,2): (1,2,2) -0.305059 (1,3,1) -0.278292 (1,3,3) 0.575529 (1,4,2) 0.363476
(1,3,3): (1,2,3) -0.567846 (1,3,2) -0.575529 (1,3,4) 0.832804 (1,4,3) 0.771325
(1,3,4): (1,2,4) -0.982747 (1,3,3) -0.832804 (1,3,5) 0.841179 (1,4,4) 1.54891
(1,3,5): (1,2,5) -1.43823 (1,3,4) -0.841179 (1,3,6) 0.329526 (1,4,5) 2.61141
(1,3,6): (1,2,6) -1.61222 (1,3,5) -0.329526 (1,3,7) -0.307695 (1,4,6) 2.94836
(1,3,7): (1,2,7) -1.44520 (1,3,6) 0.307695 (1,3,8) -0.802248 (1,4,7) 2.61842
(1,3,8): (1,2,8) -1.00255 (1,3,7) 0.802248 (1,3,9) -0.752406 (1,4,8) 1.56876
(1,3,9): (1,2,9) -0.615932 (1,3,8) 0.752406 (1,3,10) -0.417571 (1,4,9) 0.821334
(1,3,10): (1,2,10) -0.413807 (1,3,9) 0.417571 (1,4,10) 0.485101
(1,4,1): (1,3,1) -0.200863 (1,4,2) 0.441027 (1,5,1) 7.534672E-02
(1,4,2): (1,3,2) -0.363476 (1,4,1) -0.441027 (1,4,3) 0.984203 (1,5,2) 0.195280
(1,4,3): (1,3,3) -0.771325 (1,4,2) -0.984203 (1,4,4) 1.61083 (1,5,3) 0.617182
(1,4,4): (1,3,4) -1.54891 (1,4,3) -1.61083 (1,4,5) 1.89703 (1,5,4) 1.83613
(1,4,5): (1,3,5) -2.61141 (1,4,4) -1.89703 (1,4,6) 0.659931 (1,5,5) 4.49437
(1,4,6): (1,3,6) -2.94836 (1,4,5) -0.659931 (1,4,7) -0.631144 (1,5,6) 4.91895
(1,4,7): (1,3,7) -2.61842 (1,4,6) 0.631144 (1,4,8) -1.84479 (1,5,7) 4.49662
(1,4,8): (1,3,8) -1.56876 (1,4,7) 1.84479 (1,4,9) -1.49936 (1,5,8) 1.84160
(1,4,9): (1,3,9) -0.821334 (1,4,8) 1.49936 (1,4,10) -0.753589 (1,5,9) 0.632664
(1,4,10): (1,3,10) -0.485101 (1,4,9) 0.753589 (1,5,10) 0.245282
(1,5,1): (1,4,1) -7.534672E-02 (1,5,2) 0.561386 (1,6,1) -0.215480
(1,5,2): (1,4,2) -0.195280 (1,5,1) -0.561386 (1,5,3) 1.40925 (1,6,2) -0.343818
(1,5,3): (1,4,3) -0.617182 (1,5,2) -1.40925 (1,5,4) 2.84065 (1,6,3) -0.444597
(1,5,4): (1,4,4) -1.83613 (1,5,3) -2.84065 (1,5,5) 4.55661 (1,6,4) 0.549694
(1,5,5): (1,4,5) -4.49437 (1,5,4) -4.55661 (1,5,6) 1.07240 (1,6,5) 8.44519
(1,5,6): (1,4,6) -4.91895 (1,5,5) -1.07240 (1,5,7) -1.04130 (1,6,6) 7.52616
(1,5,7): (1,4,7) -4.49662 (1,5,6) 1.04130 (1,5,8) -4.49988 (1,6,7) 8.43850
(1,5,8): (1,4,8) -1.84160 (1,5,7) 4.49988 (1,5,9) -2.71769 (1,6,8) 0.528309
(1,5,9): (1,4,9) -0.632664 (1,5,8) 2.71769 (1,5,10) -1.14282 (1,6,9) -0.500811
(1,5,10): (1,4,10) -0.245282 (1,5,9) 1.14282 (1,6,10) -0.476917
(1,6,1): (1,5,1) 0.215480 (1,6,2) 0.432780 (1,7,1) -0.497060
(1,6,2): (1,5,2) 0.343818 (1,6,1) -0.432780 (1,6,3) 1.30759 (1,7,2) -1.06856
(1,6,3): (1,5,3) 0.444597 (1,6,2) -1.30759 (1,6,4) 3.86283 (1,7,3) -2.85175
(1,6,4): (1,5,4) -0.549694 (1,6,3) -3.86283 (1,6,5) 12.6963 (1,7,4) -8.13245
(1,6,5): (1,5,5) -8.44519 (1,6,4) -12.6963 (1,6,6) 0.203217 (1,7,5) -25.5653
(1,6,6): (1,5,6) -7.52616 (1,6,5) -0.203217 (1,6,7) -0.178534 (1,7,6) -38.5644
(1,6,7): (1,5,7) -8.43850 (1,6,6) 0.178534 (1,6,8) -12.6526 (1,7,7) -25.5801
(1,6,8): (1,5,8) -0.528309 (1,6,7) 12.6526 (1,6,9) -3.77460 (1,7,8) -8.17362
(1,6,9): (1,5,9) 0.500811 (1,6,8) 3.77460 (1,6,10) -1.11882 (1,7,9) -2.96856
(1,6,10): (1,5,10) 0.476917 (1,6,9) 1.11882 (1,7,10) -1.39516
(1,7,1): (1,6,1) 0.497060 (1,7,2) -0.135361 (1,8,1) -0.366177
(1,7,2): (1,6,2) 1.06856 (1,7,1) 0.135361 (1,7,3) -0.451521 (1,8,2) -0.807317
(1,7,3): (1,6,3) 2.85175 (1,7,2) 0.451521 (1,7,4) -1.23629 (1,8,3) -2.20098
(1,7,4): (1,6,4) 8.13245 (1,7,3) 1.23629 (1,7,5) -3.28265 (1,8,4) -6.27493
(1,7,5): (1,6,5) 25.5653 (1,7,4) 3.28265 (1,7,6) -10.3522 (1,8,5) -18.6497
(1,7,6): (1,6,6) 38.5644 (1,7,5) 10.3522 (1,7,7) 10.3653 (1,8,6) -59.3296
(1,7,7): (1,6,7) 25.5801 (1,7,6) -10.3653 (1,7,8) 3.29693 (1,8,7) -18.6600
(1,7,8): (1,6,8) 8.17362 (1,7,7) -3.29693 (1,7,9) 1.24640 (1,8,8) -6.30431
(1,7,9): (1,6,9) 2.96856 (1,7,8) -1.24640 (1,7,10) 0.428964 (1,8,9) -2.28563
(1,7,10): (1,6,10) 1.39516 (1,7,9) -0.428964 (1,8,10) -1.04929
(1,8,1): (1,7,1) 0.366177 (1,8,2) -0.575483 (1,9,1) 7.542107E-02
(1,8,2): (1,7,2) 0.807317 (1,8,1) 0.575483 (1,8,3) -1.84018 (1,9,2) 0.220719
(1,8,3): (1,7,3) 2.20098 (1,8,2) 1.84018 (1,8,4) -5.26979 (1,9,3) 0.816970
(1,8,4): (1,7,4) 6.27493 (1,8,3) 5.26979 (1,8,5) -15.2537 (1,9,4) 3.13070
(1,8,5): (1,7,5) 18.6497 (1,8,4) 15.2537 (1,8,6) -46.5771 (1,9,5) 12.0825
(1,8,6): (1,7,6) 59.3296 (1,8,5) 46.5771 (1,8,7) 46.5828 (1,9,6) 48.7088
(1,8,7): (1,7,7) 18.6600 (1,8,6) -46.5828 (1,8,8) 15.2475 (1,9,7) 12.0841
(1,8,8): (1,7,8) 6.30431 (1,8,7) -15.2475 (1,8,9) 5.22209 (1,9,8) 3.13489
(1,8,9): (1,7,9) 2.28563 (1,8,8) -5.22209 (1,8,10) 1.65758 (1,9,9) 0.831667
(1,8,10): (1,7,10) 1.04929 (1,8,9) -1.65758 (1,9,10) 0.273920
(1,9,1): (1,8,1) -7.542107E-02 (1,9,2) -0.429665 (1,10,1) 0.322647
(1,9,2): (1,8,2) -0.220719 (1,9,1) 0.429665 (1,9,3) -1.23769 (1,10,2) 0.705196
(1,9,3): (1,8,3) -0.816970 (1,9,2) 1.23769 (1,9,4) -2.90381 (1,10,3) 1.89555
(1,9,4): (1,8,4) -3.13070 (1,9,3) 2.90381 (1,9,5) -5.99203 (1,10,4) 5.30226
(1,9,5): (1,8,5) -12.0825 (1,9,4) 5.99203 (1,9,6) -10.7165 (1,10,5) 15.6081
(1,9,6): (1,8,6) -48.7088 (1,9,5) 10.7165 (1,9,7) 10.7216 (1,10,6) 26.0428
(1,9,7): (1,8,7) -12.0841 (1,9,6) -10.7216 (1,9,8) 5.98938 (1,10,7) 15.6160
(1,9,8): (1,8,8) -3.13489 (1,9,7) -5.98938 (1,9,9) 2.86809 (1,10,8) 5.32713
(1,9,9): (1,8,9) -0.831667 (1,9,8) -2.86809 (1,9,10) 1.09510 (1,10,9) 1.96939
(1,9,10): (1,8,10) -0.273920 (1,9,9) -1.09510 (1,10,10) 0.917245
(1,10,1): (1,9,1) -0.322647 (1,10,2) -4.816342E-02 (1,11,1) 0.233010
(1,10,2): (1,9,2) -0.705196 (1,10,1) 4.816342E-02 (1,10,3) -5.506798E-02 (1,11,2) 0.430258
(1,10,3): (1,9,3) -1.89555 (1,10,2) 5.506798E-02 (1,10,4) 0.426234 (1,11,3) 0.843707
(1,10,4): (1,9,4) -5.30226 (1,10,3) -0.426234 (1,10,5) 3.58239 (1,11,4) 1.16003
(1,10,5): (1,9,5) -15.6081 (1,10,4) -3.58239 (1,10,6) -1.68113 (1,11,5) -1.07888
(1,10,6): (1,9,6) -26.0428 (1,10,5) 1.68113 (1,10,7) 1.69285 (1,11,6) 0.580222
(1,10,7): (1,9,7) -15.6160 (1,10,6) -1.69285 (1,10,8) -3.56774 (1,11,7) -1.07277
(1,10,8): (1,9,8) -5.32713 (1,10,7) 3.56774 (1,10,9) -0.412053 (1,11,8) 1.18007
(1,10,9): (1,9,9) -1.96939 (1,10,8) 0.412053 (1,10,10) 5.204213E-02 (1,11,9) 0.900597
(1,10,10): (1,9,10) -0.917245 (1,10,9) -5.204213E-02 (1,11,10) 0.578557
(1,11,1): (1,10,1) -0.233010 (1,11,2) 0.148559 (1,12,1) 4.779386E-02
(1,11,2): (1,10,2) -0.430258 (1,11,1) -0.148559 (1,11,3) 0.356438 (1,12,2) 7.906071E-02
(1,11,3): (1,10,3) -0.843707 (1,11,2) -0.356438 (1,11,4) 0.741296 (1,12,3) 9.780093E-02
(1,11,4): (1,10,4) -1.16003 (1,11,3) -0.741296 (1,11,5) 1.30398 (1,12,4) -6.984623E-02
(1,11,5): (1,10,5) 1.07888 (1,11,4) -1.30398 (1,11,6) -1.592308E-02 (1,12,5) -0.733186
(1,11,6): (1,10,6) -0.580222 (1,11,5) 1.592308E-02 (1,11,7) 3.351228E-02 (1,12,6) -0.551325
(1,11,7): (1,10,7) 1.07277 (1,11,6) -3.351228E-02 (1,11,8) -1.27571 (1,12,7) -0.732377
(1,11,8): (1,10,8) -1.18007 (1,11,7) 1.27571 (1,11,9) -0.690231 (1,12,8) -6.609497E-02
(1,11,9): (1,10,9) -0.900597 (1,11,8) 0.690231 (1,11,10) -0.268035 (1,12,9) 0.110194
(1,11,10): (1,10,10) -0.578557 (1,11,9) 0.268035 (1,12,10) 0.111635
(1,12,1): (1,11,1) -4.779386E-02 (1,12,2) 0.179857 (1,13,1) -7.163130E-02
(1,12,2): (1,11,2) -7.906071E-02 (1,12,1) -0.179857 (1,12,3) 0.375229 (1,13,2) -0.111052
(1,12,3): (1,11,3) -9.780093E-02 (1,12,2) -0.375229 (1,12,4) 0.572648 (1,13,3) -0.211756
(1,12,4): (1,11,4) 6.984623E-02 (1,12,3) -0.572648 (1,12,5) 0.637071 (1,13,4) -0.414758
(1,12,5): (1,11,5) 0.733186 (1,12,4) -0.637071 (1,12,6) 0.164965 (1,13,5) -0.704652
(1,12,6): (1,11,6) 0.551325 (1,12,5) -0.164965 (1,12,7) -0.146550 (1,13,6) -0.744294
(1,12,7): (1,11,7) 0.732377 (1,12,6) 0.146550 (1,12,8) -0.606016 (1,13,7) -0.707859
(1,12,8): (1,11,8) 6.609497E-02 (1,12,7) 0.606016 (1,12,9) -0.512992 (1,13,8) -0.423144
(1,12,9): (1,11,9) -0.110194 (1,12,8) 0.512992 (1,12,10) -0.266591 (1,13,9) -0.230156
(1,12,10): (1,11,10) -0.111635 (1,12,9) 0.266591 (1,13,10) -0.149105
(1,13,1): (1,12,1) 7.163130E-02 (1,13,2) 0.140409 (1,14,1) -9.695257E-02
(1,13,2): (1,12,2) 0.111052 (1,13,1) -0.140409 (1,13,3) 0.274364 (1,14,2) -0.144125
(1,13,3): (1,12,3) 0.211756 (1,13,2) -0.274364 (1,13,4) 0.369337 (1,14,3) -0.242974
(1,13,4): (1,12,4) 0.414758 (1,13,3) -0.369337 (1,13,5) 0.347364 (1,14,4) -0.390438
(1,13,5): (1,12,5) 0.704652 (1,13,4) -0.347364 (1,13,6) 0.125536 (1,14,5) -0.543418
(1,13,6): (1,12,6) 0.744294 (1,13,5) -0.125536 (1,13,7) -0.110317 (1,14,6) -0.592420
(1,13,7): (1,12,7) 0.707859 (1,13,6) 0.110317 (1,13,8) -0.321576 (1,14,7) -0.547552
(1,13,8): (1,12,8) 0.423144 (1,13,7) 0.321576 (1,13,9) -0.319837 (1,14,8) -0.401703
(1,13,9): (1,12,9) 0.230156 (1,13,8) 0.319837 (1,13,10) -0.185512 (1,14,9) -0.268469
(1,13,10): (1,12,10) 0.149105 (1,13,9) 0.185512 (1,14,10) -0.196782
(1,14,1): (1,13,1) 9.695257E-02 (1,14,2) 9.323802E-02 (1,15,1) -6.095849E-02
(1,14,2): (1,13,2) 0.144125 (1,14,1) -9.323802E-02 (1,14,3) 0.175485 (1,15,2) -8.855899E-02
(1,14,3): (1,13,3) 0.242974 (1,14,2) -0.175485 (1,14,4) 0.221903 (1,15,3) -0.143108
(1,14,4): (1,13,4) 0.390438 (1,14,3) -0.221903 (1,14,5) 0.194672 (1,15,4) -0.216998
(1,14,5): (1,13,5) 0.543418 (1,14,4) -0.194672 (1,14,6) 7.675244E-02 (1,15,5) -0.285920
(1,14,6): (1,13,6) 0.592420 (1,14,5) -7.675244E-02 (1,14,7) -6.565563E-02 (1,15,6) -0.311850
(1,14,7): (1,13,7) 0.547552 (1,14,6) 6.565563E-02 (1,14,8) -0.176044 (1,15,7) -0.288546
(1,14,8): (1,13,8) 0.401703 (1,14,7) 0.176044 (1,14,9) -0.186710 (1,15,8) -0.224175
(1,14,9): (1,13,9) 0.268469 (1,14,8) 0.186710 (1,14,10) -0.113883 (1,15,9) -0.159303
(1,14,10): (1,13,10) 0.196782 (1,14,9) 0.113883 (1,15,10) -0.121541
(1,15,1): (1,14,1) 6.095849E-02 (1,15,2) 6.563624E-02
(1,15,2): (1,14,2) 8.855899E-02 (1,15,1) -6.563624E-02 (1,15,3) 0.120918
(1,15,3): (1,14,3) 0.143108 (1,15,2) -0.120918 (1,15,4) 0.148011
(1,15,4): (1,14,4) 0.216998 (1,15,3) -0.148011 (1,15,5) 0.125811
(1,15,5): (1,14,5) 0.285920 (1,15,4) -0.125811 (1,15,6) 5.088204E-02
(1,15,6): (1,14,6) 0.311850 (1,15,5) -5.088204E-02 (1,15,7) -4.240735E-02
(1,15,7): (1,14,7) 0.288546 (1,15,6) 4.240735E-02 (1,15,8) -0.111744
(1,15,8): (1,14,8) 0.224175 (1,15,7) 0.111744 (1,15,9) -0.121861
(1,15,9): (1,14,9) 0.159303 (1,15,8) 0.121861 (1,15,10) -7.613765E-02
(1,15,10): (1,14,10) 0.121541 (1,15,9) 7.613765E-02

 WEL PACKAGE (WEL-1) FLOW RATES   PERIOD      2   STEP       80
 ----------------------------------------------------------------------------------------
   NUMBER   CELLID                    RATE       NAME                                    
 ----------------------------------------------------------------------------------------
     1      (1,8,6)              -201.36487      WEL                                     
 ----------------------------------------------------------------------------------------




 API PACKAGE (MAR) FLOW RATES   PERIOD      2   STEP       80
 -----------------------------------------------
   NUMBER   CELLID                    RATE      
 -----------------------------------------------
     1      (1,6,5)               46.666667     
     2      (1,6,6)               46.666667     
     3      (1,6,7)               46.666667     
     4      (1,10,5)              20.454956     
     5      (1,10,6)              20.454956     
     6      (1,10,7)              20.454956     
 -----------------------------------------------



1
  HEAD IN LAYER   1 AT END OF TIME STEP  80 IN STRESS PERIOD    2
  ---------------------------------------------------------------------------

            1           2           3           4           5           6           7           8           9          10
 ........................................................................................................................
   1   2.4288E-02  3.4359E-02  5.3441E-02  7.7696E-02  9.9069E-02  0.1078      0.1001      8.0616E-02  5.9940E-02  4.7313E-02
   2   3.4565E-02  5.0410E-02  8.1430E-02  0.1228      0.1610      0.1765      0.1624      0.1268      9.0587E-02  6.9198E-02
   3   5.3065E-02  8.0672E-02  0.1374      0.2189      0.3006      0.3325      0.3027      0.2248      0.1513      0.1101    
   4   7.3006E-02  0.1166      0.2130      0.3683      0.5482      0.6104      0.5509      0.3760      0.2315      0.1579    
   5   8.0481E-02  0.1359      0.2730      0.5425      0.9583       1.055      0.9611      0.5506      0.2930      0.1820    
   6   5.9105E-02  0.1019      0.2298      0.5944       1.681       1.699       1.683      0.6004      0.2443      0.1351    
   7   9.6906E-03 -3.8324E-03 -4.9002E-02 -0.1732     -0.5073      -1.598     -0.5061     -0.1706     -4.5429E-02 -2.5214E-03
   8  -2.6892E-02 -8.4595E-02 -0.2702     -0.8118      -2.472      -8.659      -2.472     -0.8120     -0.2750     -0.1075    
   9  -1.9335E-02 -6.2385E-02 -0.1869     -0.4828      -1.112      -2.318      -1.112     -0.4826     -0.1903     -7.9864E-02
  10   1.2888E-02  8.0782E-03  2.5758E-03  4.5008E-02  0.3898      0.2280      0.3909      4.7565E-02  6.5548E-03  1.1753E-02
  11   3.6106E-02  5.0886E-02  8.6225E-02  0.1592      0.2860      0.2844      0.2877      0.1637      9.5760E-02  6.9211E-02
  12   4.0865E-02  5.8746E-02  9.5912E-02  0.1523      0.2147      0.2308      0.2165      0.1572      0.1067      8.0286E-02
  13   3.3731E-02  4.7706E-02  7.4938E-02  0.1115      0.1457      0.1581      0.1472      0.1155      8.3891E-02  6.5494E-02
  14   2.4069E-02  3.3362E-02  5.0821E-02  7.2851E-02  9.2141E-02  9.9740E-02  9.3239E-02  7.5798E-02  5.7267E-02  4.5944E-02
  15   1.7988E-02  2.4535E-02  3.6583E-02  5.1308E-02  6.3810E-02  6.8863E-02  6.4651E-02  5.3549E-02  4.1428E-02  3.3845E-02

 HEAD WILL BE SAVED ON UNIT 1043 AT END OF TIME STEP   80, STRESS PERIOD    2


  VOLUME BUDGET FOR ENTIRE MODEL AT END OF TIME STEP   80, STRESS PERIOD   2
  ---------------------------------------------------------------------------------------------------

     CUMULATIVE VOLUME      L**3       RATES FOR THIS TIME STEP      L**3/T          PACKAGE NAME    
     ------------------                 ------------------------                     ----------------

           IN:                                      IN:
           ---                                      ---
              STO-SS =          25.9690                STO-SS =       1.4148E-02     STORAGE                          
              STO-SY =       61322.6988                STO-SY =          29.2244     STORAGE                          
                 WEL =           0.0000                   WEL =           0.0000     WEL-1                            
                 API =      179916.4372                   API =         201.3649     MAR                              
                 CHD =       2.8247E-08                   CHD =           0.0000     CHD_0                            

            TOTAL IN =      241265.1050              TOTAL IN =         230.6034

          OUT:                                     OUT:
          ----                                     ----
              STO-SS =          31.7924                STO-SS =       1.4995E-02     STORAGE                          
              STO-SY =       61316.8755                STO-SY =          29.2236     STORAGE                          
                 WEL =      179916.4372                   WEL =         201.3649     WEL-1                            
                 API =           0.0000                   API =           0.0000     MAR                              
                 CHD =       3.0388E-08                   CHD =           0.0000     CHD_0                            

           TOTAL OUT =      241265.1050             TOTAL OUT =         230.6034

            IN - OUT =       3.1407E-06              IN - OUT =       1.0339E-08

 PERCENT DISCREPANCY =           0.00     PERCENT DISCREPANCY =           0.00




         TIME SUMMARY AT END OF TIME STEP   80 IN STRESS PERIOD    2
                    SECONDS     MINUTES      HOURS       DAYS        YEARS
                    -----------------------------------------------------------
   TIME STEP LENGTH 8.64000E+05  14400.      240.00      10.000     2.73785E-02
 STRESS PERIOD TIME 6.91200E+07 1.15200E+06  19200.      800.00      2.1903    
         TOTAL TIME 6.92064E+07 1.15344E+06  19224.      801.00      2.1930    


end timestep


start timestep kper="2" kstp="81" mode="normal"

 UBDSV1 SAVING           STO-SS ON UNIT   1042 AT TIME STEP     81, STRESS PERIOD      2
 UBDSV1 SAVING           STO-SY ON UNIT   1042 AT TIME STEP     81, STRESS PERIOD      2
 UBDSV1 SAVING     FLOW-JA-FACE ON UNIT   1042 AT TIME STEP     81, STRESS PERIOD      2
 UBDSV06 SAVING       DATA-SPDIS IN MODEL GWF              PACKAGE NPF             CONNECTED TO MODEL GWF              PACKAGE NPF              ON UNIT   1042 AT TIME STEP     81, STRESS PERIOD      2
 UBDSV06 SAVING              WEL IN MODEL GWF              PACKAGE GWF             CONNECTED TO MODEL GWF              PACKAGE WEL-1            ON UNIT   1042 AT TIME STEP     81, STRESS PERIOD      2
 UBDSV06 SAVING              API IN MODEL GWF              PACKAGE GWF             CONNECTED TO MODEL GWF              PACKAGE MAR              ON UNIT   1042 AT TIME STEP     81, STRESS PERIOD      2
 UBDSV06 SAVING              CHD IN MODEL GWF              PACKAGE GWF             CONNECTED TO MODEL GWF              PACKAGE CHD_0            ON UNIT   1042 AT TIME STEP     81, STRESS PERIOD      2

    CALCULATED INTERCELL FLOW FOR PERIOD 2 STEP 81
(1,1,1): (1,1,2) 0.103459 (1,2,1) 0.104997
(1,1,2): (1,1,1) -0.103459 (1,1,3) 0.195997 (1,2,2) 0.163543
(1,1,3): (1,1,2) -0.195997 (1,1,4) 0.249125 (1,2,3) 0.284968
(1,1,4): (1,1,3) -0.249125 (1,1,5) 0.219596 (1,2,4) 0.459711
(1,1,5): (1,1,4) -0.219596 (1,1,6) 8.996750E-02 (1,2,5) 0.632955
(1,1,6): (1,1,5) -8.996750E-02 (1,1,7) -7.847318E-02 (1,2,6) 0.702719
(1,1,7): (1,1,6) 7.847318E-02 (1,1,8) -0.200112 (1,2,7) 0.637110
(1,1,8): (1,1,7) 0.200112 (1,1,9) -0.211731 (1,2,8) 0.471382
(1,1,9): (1,1,8) 0.211731 (1,1,10) -0.129194 (1,2,9) 0.312569
(1,1,10): (1,1,9) 0.129194 (1,2,10) 0.223427
(1,2,1): (1,1,1) -0.104997 (1,2,2) 0.162004 (1,3,1) 0.188493
(1,2,2): (1,1,2) -0.163543 (1,2,1) -0.162004 (1,2,3) 0.317461 (1,3,2) 0.307937
(1,2,3): (1,1,3) -0.284968 (1,2,2) -0.317461 (1,2,4) 0.423807 (1,3,3) 0.571308
(1,2,4): (1,1,4) -0.459711 (1,2,3) -0.423807 (1,2,5) 0.392441 (1,3,4) 0.986786
(1,2,5): (1,1,5) -0.632955 (1,2,4) -0.392441 (1,2,6) 0.159371 (1,3,5) 1.44268
(1,2,6): (1,1,6) -0.702719 (1,2,5) -0.159371 (1,2,7) -0.143734 (1,3,6) 1.61688
(1,2,7): (1,1,7) -0.637110 (1,2,6) 0.143734 (1,2,8) -0.365409 (1,3,7) 1.44983
(1,2,8): (1,1,8) -0.471382 (1,2,7) 0.365409 (1,2,9) -0.370388 (1,3,8) 1.00698
(1,2,9): (1,1,9) -0.312569 (1,2,8) 0.370388 (1,2,10) -0.218255 (1,3,9) 0.620087
(1,2,10): (1,1,10) -0.223427 (1,2,9) 0.218255 (1,3,10) 0.417756
(1,3,1): (1,2,1) -0.188493 (1,3,2) 0.281417 (1,4,1) 0.201916
(1,3,2): (1,2,2) -0.307937 (1,3,1) -0.281417 (1,3,3) 0.580857 (1,4,2) 0.364394
(1,3,3): (1,2,3) -0.571308 (1,3,2) -0.580857 (1,3,4) 0.838703 (1,4,3) 0.771943
(1,3,4): (1,2,4) -0.986786 (1,3,3) -0.838703 (1,3,5) 0.845813 (1,4,4) 1.54910
(1,3,5): (1,2,5) -1.44268 (1,3,4) -0.845813 (1,3,6) 0.331529 (1,4,5) 2.61118
(1,3,6): (1,2,6) -1.61688 (1,3,5) -0.331529 (1,3,7) -0.308791 (1,4,6) 2.94806
(1,3,7): (1,2,7) -1.44983 (1,3,6) 0.308791 (1,3,8) -0.805612 (1,4,7) 2.61829
(1,3,8): (1,2,8) -1.00698 (1,3,7) 0.805612 (1,3,9) -0.756367 (1,4,8) 1.56914
(1,3,9): (1,2,9) -0.620087 (1,3,8) 0.756367 (1,3,10) -0.420197 (1,4,9) 0.822229
(1,3,10): (1,2,10) -0.417756 (1,3,9) 0.420197 (1,4,10) 0.486308
(1,4,1): (1,3,1) -0.201916 (1,4,2) 0.444021 (1,5,1) 7.302166E-02
(1,4,2): (1,3,2) -0.364394 (1,4,1) -0.444021 (1,4,3) 0.989247 (1,5,2) 0.191900
(1,4,3): (1,3,3) -0.771943 (1,4,2) -0.989247 (1,4,4) 1.61633 (1,5,3) 0.611989
(1,4,4): (1,3,4) -1.54910 (1,4,3) -1.61633 (1,4,5) 1.90130 (1,5,4) 1.82895
(1,4,5): (1,3,5) -2.61118 (1,4,4) -1.90130 (1,4,6) 0.661881 (1,5,5) 4.48558
(1,4,6): (1,3,6) -2.94806 (1,4,5) -0.661881 (1,4,7) -0.632083 (1,5,6) 4.90985
(1,4,7): (1,3,7) -2.61829 (1,4,6) 0.632083 (1,4,8) -1.84768 (1,5,7) 4.48775
(1,4,8): (1,3,8) -1.56914 (1,4,7) 1.84768 (1,4,9) -1.50283 (1,5,8) 1.83415
(1,4,9): (1,3,9) -0.822229 (1,4,8) 1.50283 (1,4,10) -0.755908 (1,5,9) 0.626803
(1,4,10): (1,3,10) -0.486308 (1,4,9) 0.755908 (1,5,10) 0.240513
(1,5,1): (1,4,1) -7.302166E-02 (1,5,2) 0.563327 (1,6,1) -0.221525
(1,5,2): (1,4,2) -0.191900 (1,5,1) -0.563327 (1,5,3) 1.41250 (1,6,2) -0.351854
(1,5,3): (1,4,3) -0.611989 (1,5,2) -1.41250 (1,5,4) 2.84426 (1,6,3) -0.455891
(1,5,4): (1,4,4) -1.82895 (1,5,3) -2.84426 (1,5,5) 4.55953 (1,6,4) 0.535282
(1,5,5): (1,4,5) -4.48558 (1,5,4) -4.55953 (1,5,6) 1.07409 (1,6,5) 8.42843
(1,5,6): (1,4,6) -4.90985 (1,5,5) -1.07409 (1,5,7) -1.04206 (1,6,6) 7.50966
(1,5,7): (1,4,7) -4.48775 (1,5,6) 1.04206 (1,5,8) -4.50158 (1,6,7) 8.42143
(1,5,8): (1,4,8) -1.83415 (1,5,7) 4.50158 (1,5,9) -2.71965 (1,6,8) 0.513109
(1,5,9): (1,4,9) -0.626803 (1,5,8) 2.71965 (1,5,10) -1.14407 (1,6,9) -0.513793
(1,5,10): (1,4,10) -0.240513 (1,5,9) 1.14407 (1,6,10) -0.488135
(1,6,1): (1,5,1) 0.221525 (1,6,2) 0.432732 (1,7,1) -0.504887
(1,6,2): (1,5,2) 0.351854 (1,6,1) -0.432732 (1,6,3) 1.30757 (1,7,2) -1.07888
(1,6,3): (1,5,3) 0.455891 (1,6,2) -1.30757 (1,6,4) 3.86327 (1,7,3) -2.86613
(1,6,4): (1,5,4) -0.535282 (1,6,3) -3.86327 (1,6,5) 12.6979 (1,7,4) -8.15065
(1,6,5): (1,5,5) -8.42843 (1,6,4) -12.6979 (1,6,6) 0.205025 (1,7,5) -25.5851
(1,6,6): (1,5,6) -7.50966 (1,6,5) -0.205025 (1,6,7) -0.179703 (1,7,6) -38.5814
(1,6,7): (1,5,7) -8.42143 (1,6,6) 0.179703 (1,6,8) -12.6534 (1,7,7) -25.6003
(1,6,8): (1,5,8) -0.513109 (1,6,7) 12.6534 (1,6,9) -3.77430 (1,7,8) -8.19284
(1,6,9): (1,5,9) 0.513793 (1,6,8) 3.77430 (1,6,10) -1.11829 (1,7,9) -2.98509
(1,6,10): (1,5,10) 0.488135 (1,6,9) 1.11829 (1,7,10) -1.40950
(1,7,1): (1,6,1) 0.504887 (1,7,2) -0.137830 (1,8,1) -0.372643
(1,7,2): (1,6,2) 1.07888 (1,7,1) 0.137830 (1,7,3) -0.455347 (1,8,2) -0.816306
(1,7,3): (1,6,3) 2.86613 (1,7,2) 0.455347 (1,7,4) -1.23882 (1,8,3) -2.21445
(1,7,4): (1,6,4) 8.15065 (1,7,3) 1.23882 (1,7,5) -3.28063 (1,8,4) -6.29312
(1,7,5): (1,6,5) 25.5851 (1,7,4) 3.28063 (1,7,6) -10.3465 (1,8,5) -18.6686
(1,7,6): (1,6,6) 38.5814 (1,7,5) 10.3465 (1,7,7) 10.3599 (1,8,6) -59.3329
(1,7,7): (1,6,7) 25.6003 (1,7,6) -10.3599 (1,7,8) 3.29500 (1,8,7) -18.6792
(1,7,8): (1,6,8) 8.19284 (1,7,7) -3.29500 (1,7,9) 1.24851 (1,8,8) -6.32329
(1,7,9): (1,6,9) 2.98509 (1,7,8) -1.24851 (1,7,10) 0.431406 (1,8,9) -2.30084
(1,7,10): (1,6,10) 1.40950 (1,7,9) -0.431406 (1,8,10) -1.06170
(1,8,1): (1,7,1) 0.372643 (1,8,2) -0.580450 (1,9,1) 7.292953E-02
(1,8,2): (1,7,2) 0.816306 (1,8,1) 0.580450 (1,8,3) -1.84840 (1,9,2) 0.216328
(1,8,3): (1,7,3) 2.21445 (1,8,2) 1.84840 (1,8,4) -5.27652 (1,9,3) 0.808136
(1,8,4): (1,7,4) 6.29312 (1,8,3) 5.27652 (1,8,5) -15.2495 (1,9,4) 3.11333
(1,8,5): (1,7,5) 18.6686 (1,8,4) 15.2495 (1,8,6) -46.5437 (1,9,5) 12.0480
(1,8,6): (1,7,6) 59.3329 (1,8,5) 46.5437 (1,8,7) 46.5493 (1,9,6) 48.6308
(1,8,7): (1,7,7) 18.6792 (1,8,6) -46.5493 (1,8,8) 15.2429 (1,9,7) 12.0495
(1,8,8): (1,7,8) 6.32329 (1,8,7) -15.2429 (1,8,9) 5.22738 (1,9,8) 3.11728
(1,8,9): (1,7,9) 2.30084 (1,8,8) -5.22738 (1,8,10) 1.66267 (1,9,9) 0.822196
(1,8,10): (1,7,10) 1.06170 (1,8,9) -1.66267 (1,9,10) 0.267974
(1,9,1): (1,8,1) -7.292953E-02 (1,9,2) -0.436525 (1,10,1) 0.324760
(1,9,2): (1,8,2) -0.216328 (1,9,1) 0.436525 (1,9,3) -1.25028 (1,10,2) 0.707051
(1,9,3): (1,8,3) -0.808136 (1,9,2) 1.25028 (1,9,4) -2.91864 (1,10,3) 1.89570
(1,9,4): (1,8,4) -3.11333 (1,9,3) 2.91864 (1,9,5) -6.00221 (1,10,4) 5.29611
(1,9,5): (1,8,5) -12.0480 (1,9,4) 6.00221 (1,9,6) -10.7106 (1,10,5) 15.5818
(1,9,6): (1,8,6) -48.6308 (1,9,5) 10.7106 (1,9,7) 10.7157 (1,10,6) 26.0020
(1,9,7): (1,8,7) -12.0495 (1,9,6) -10.7157 (1,9,8) 5.99898 (1,10,7) 15.5899
(1,9,8): (1,8,8) -3.11728 (1,9,7) -5.99898 (1,9,9) 2.88110 (1,10,8) 5.32130
(1,9,9): (1,8,9) -0.822196 (1,9,8) -2.88110 (1,9,10) 1.10366 (1,10,9) 1.97014
(1,9,10): (1,8,10) -0.267974 (1,9,9) -1.10366 (1,10,10) 0.919930
(1,10,1): (1,9,1) -0.324760 (1,10,2) -5.526268E-02 (1,11,1) 0.238016
(1,10,2): (1,9,2) -0.707051 (1,10,1) 5.526268E-02 (1,10,3) -6.921376E-02 (1,11,2) 0.437043
(1,10,3): (1,9,3) -1.89570 (1,10,2) 6.921376E-02 (1,10,4) 0.405688 (1,11,3) 0.853817
(1,10,4): (1,9,4) -5.29611 (1,10,3) -0.405688 (1,10,5) 3.55412 (1,11,4) 1.17531
(1,10,5): (1,9,5) -15.5818 (1,10,4) -3.55412 (1,10,6) -1.68691 (1,11,5) -1.05193
(1,10,6): (1,9,6) -26.0020 (1,10,5) 1.68691 (1,10,7) 1.69867 (1,11,6) 0.607338
(1,10,7): (1,9,7) -15.5899 (1,10,6) -1.69867 (1,10,8) -3.53985 (1,11,7) -1.04560
(1,10,8): (1,9,8) -5.32130 (1,10,7) 3.53985 (1,10,9) -0.392990 (1,11,8) 1.19596
(1,10,9): (1,9,9) -1.97014 (1,10,8) 0.392990 (1,10,10) 6.244838E-02 (1,11,9) 0.912050
(1,10,10): (1,9,10) -0.919930 (1,10,9) -6.244838E-02 (1,11,10) 0.587957
(1,11,1): (1,10,1) -0.238016 (1,11,2) 0.143217 (1,12,1) 5.269594E-02
(1,11,2): (1,10,2) -0.437043 (1,11,1) -0.143217 (1,11,3) 0.345532 (1,12,2) 8.649065E-02
(1,11,3): (1,10,3) -0.853817 (1,11,2) -0.345532 (1,11,4) 0.725808 (1,12,3) 0.110165
(1,11,4): (1,10,4) -1.17531 (1,11,3) -0.725808 (1,11,5) 1.28797 (1,12,4) -5.061079E-02
(1,11,5): (1,10,5) 1.05193 (1,11,4) -1.28797 (1,11,6) -2.132758E-02 (1,12,5) -0.706240
(1,11,6): (1,10,6) -0.607338 (1,11,5) 2.132758E-02 (1,11,7) 3.917153E-02 (1,12,6) -0.522106
(1,11,7): (1,10,7) 1.04560 (1,11,6) -3.917153E-02 (1,11,8) -1.25968 (1,12,7) -0.705256
(1,11,8): (1,10,8) -1.19596 (1,11,7) 1.25968 (1,11,9) -0.675496 (1,12,8) -4.633503E-02
(1,11,9): (1,10,9) -0.912050 (1,11,8) 0.675496 (1,11,10) -0.259618 (1,12,9) 0.123864
(1,11,10): (1,10,10) -0.587957 (1,11,9) 0.259618 (1,12,10) 0.121901
(1,12,1): (1,11,1) -5.269594E-02 (1,12,2) 0.177042 (1,13,1) -6.878652E-02
(1,12,2): (1,11,2) -8.649065E-02 (1,12,1) -0.177042 (1,12,3) 0.369265 (1,13,2) -0.106165
(1,12,3): (1,11,3) -0.110165 (1,12,2) -0.369265 (1,12,4) 0.564095 (1,13,3) -0.202859
(1,12,4): (1,11,4) 5.061079E-02 (1,12,3) -0.564095 (1,12,5) 0.628735 (1,13,4) -0.400466
(1,12,5): (1,11,5) 0.706240 (1,12,4) -0.628735 (1,12,6) 0.161864 (1,13,5) -0.685205
(1,12,6): (1,11,6) 0.522106 (1,12,5) -0.161864 (1,12,7) -0.143022 (1,13,6) -0.722921
(1,12,7): (1,11,7) 0.705256 (1,12,6) 0.143022 (1,12,8) -0.597310 (1,13,7) -0.688351
(1,12,8): (1,11,8) 4.633503E-02 (1,12,7) 0.597310 (1,12,9) -0.504407 (1,13,8) -0.408607
(1,12,9): (1,11,9) -0.123864 (1,12,8) 0.504407 (1,12,10) -0.261583 (1,13,9) -0.220507
(1,12,10): (1,11,10) -0.121901 (1,12,9) 0.261583 (1,13,10) -0.142338
(1,13,1): (1,12,1) 6.878652E-02 (1,13,2) 0.139637 (1,14,1) -9.613370E-02
(1,13,2): (1,12,2) 0.106165 (1,13,1) -0.139637 (1,13,3) 0.272415 (1,14,2) -0.142154
(1,13,3): (1,12,3) 0.202859 (1,13,2) -0.272415 (1,13,4) 0.366176 (1,14,3) -0.238703
(1,13,4): (1,12,4) 0.400466 (1,13,3) -0.366176 (1,13,5) 0.344149 (1,14,4) -0.383074
(1,13,5): (1,12,5) 0.685205 (1,13,4) -0.344149 (1,13,6) 0.124345 (1,14,5) -0.533202
(1,13,6): (1,12,6) 0.722921 (1,13,5) -0.124345 (1,13,7) -0.108638 (1,14,6) -0.581086
(1,13,7): (1,12,7) 0.688351 (1,13,6) 0.108638 (1,13,8) -0.317808 (1,14,7) -0.537360
(1,13,8): (1,12,8) 0.408607 (1,13,7) 0.317808 (1,13,9) -0.316133 (1,14,8) -0.394331
(1,13,9): (1,12,9) 0.220507 (1,13,8) 0.316133 (1,13,10) -0.183383 (1,14,9) -0.263991
(1,13,10): (1,12,10) 0.142338 (1,13,9) 0.183383 (1,14,10) -0.194036
(1,14,1): (1,13,1) 9.613370E-02 (1,14,2) 9.361853E-02 (1,15,1) -6.102453E-02
(1,14,2): (1,13,2) 0.142154 (1,14,1) -9.361853E-02 (1,14,3) 0.175833 (1,15,2) -8.817866E-02
(1,14,3): (1,13,3) 0.238703 (1,14,2) -0.175833 (1,14,4) 0.221828 (1,15,3) -0.141816
(1,14,4): (1,13,4) 0.383074 (1,14,3) -0.221828 (1,14,5) 0.194295 (1,15,4) -0.214457
(1,14,5): (1,13,5) 0.533202 (1,14,4) -0.194295 (1,14,6) 7.666932E-02 (1,15,5) -0.282229
(1,14,6): (1,13,6) 0.581086 (1,14,5) -7.666932E-02 (1,14,7) -6.511003E-02 (1,15,6) -0.307705
(1,14,7): (1,13,7) 0.537360 (1,14,6) 6.511003E-02 (1,14,8) -0.175081 (1,15,7) -0.284894
(1,14,8): (1,13,8) 0.394331 (1,14,7) 0.175081 (1,14,9) -0.185892 (1,15,8) -0.221697
(1,14,9): (1,13,9) 0.263991 (1,14,8) 0.185892 (1,14,10) -0.113483 (1,15,9) -0.158037
(1,14,10): (1,13,10) 0.194036 (1,14,9) 0.113483 (1,15,10) -0.121002
(1,15,1): (1,14,1) 6.102453E-02 (1,15,2) 6.646294E-02
(1,15,2): (1,14,2) 8.817866E-02 (1,15,1) -6.646294E-02 (1,15,3) 0.122179
(1,15,3): (1,14,3) 0.141816 (1,15,2) -0.122179 (1,15,4) 0.149182
(1,15,4): (1,14,4) 0.214457 (1,15,3) -0.149182 (1,15,5) 0.126581
(1,15,5): (1,14,5) 0.282229 (1,15,4) -0.126581 (1,15,6) 5.125003E-02
(1,15,6): (1,14,6) 0.307705 (1,15,5) -5.125003E-02 (1,15,7) -4.235198E-02
(1,15,7): (1,14,7) 0.284894 (1,15,6) 4.235198E-02 (1,15,8) -0.111952
(1,15,8): (1,14,8) 0.221697 (1,15,7) 0.111952 (1,15,9) -0.122254
(1,15,9): (1,14,9) 0.158037 (1,15,8) 0.122254 (1,15,10) -7.646455E-02
(1,15,10): (1,14,10) 0.121002 (1,15,9) 7.646455E-02

 WEL PACKAGE (WEL-1) FLOW RATES   PERIOD      2   STEP       81
 ----------------------------------------------------------------------------------------
   NUMBER   CELLID                    RATE       NAME                                    
 ----------------------------------------------------------------------------------------
     1      (1,8,6)              -201.21931      WEL                                     
 ----------------------------------------------------------------------------------------




 API PACKAGE (MAR) FLOW RATES   PERIOD      2   STEP       81
 -----------------------------------------------
   NUMBER   CELLID                    RATE      
 -----------------------------------------------
     1      (1,6,5)               46.666667     
     2      (1,6,6)               46.666667     
     3      (1,6,7)               46.666667     
     4      (1,10,5)              20.406436     
     5      (1,10,6)              20.406436     
     6      (1,10,7)              20.406436     
 -----------------------------------------------



1
  HEAD IN LAYER   1 AT END OF TIME STEP  81 IN STRESS PERIOD    2
  ---------------------------------------------------------------------------

            1           2           3           4           5           6           7           8           9          10
 ........................................................................................................................
   1   2.5329E-02  3.5639E-02  5.5131E-02  7.9846E-02  0.1016      0.1105      0.1027      8.2914E-02  6.1915E-02  4.9075E-02
   2   3.5792E-02  5.1909E-02  8.3392E-02  0.1252      0.1639      0.1795      0.1654      0.1294      9.2884E-02  7.1260E-02
   3   5.4539E-02  8.2450E-02  0.1397      0.2218      0.3039      0.3359      0.3061      0.2279      0.1540      0.1126    
   4   7.4581E-02  0.1185      0.2153      0.3712      0.5513      0.6137      0.5542      0.3791      0.2343      0.1604    
   5   8.1824E-02  0.1374      0.2749      0.5446      0.9606       1.058      0.9635      0.5529      0.2952      0.1840    
   6   5.9851E-02  0.1027      0.2305      0.5951       1.682       1.700       1.684      0.6013      0.2453      0.1361    
   7   9.6627E-03 -4.1069E-03 -4.9660E-02 -0.1742     -0.5080      -1.598     -0.5068     -0.1715     -4.6093E-02 -2.9392E-03
   8  -2.7566E-02 -8.5771E-02 -0.2722     -0.8146      -2.475      -8.660      -2.474     -0.8149     -0.2772     -0.1091    
   9  -2.0258E-02 -6.3999E-02 -0.1898     -0.4873      -1.118      -2.324      -1.118     -0.4872     -0.1934     -8.2121E-02
  10   1.2179E-02  6.6591E-03 -2.5770E-04  4.0149E-02  0.3825      0.2200      0.3836      4.2675E-02  3.5430E-03  9.7818E-03
  11   3.5895E-02  5.0145E-02  8.4409E-02  0.1559      0.2812      0.2791      0.2829      0.1604      9.3900E-02  6.8179E-02
  12   4.1143E-02  5.8744E-02  9.5322E-02  0.1509      0.2125      0.2283      0.2143      0.1558      0.1062      8.0272E-02
  13   3.4293E-02  4.8189E-02  7.5227E-02  0.1114      0.1454      0.1576      0.1469      0.1156      8.4337E-02  6.6152E-02
  14   2.4712E-02  3.4042E-02  5.1535E-02  7.3556E-02  9.2807E-02  0.1004      9.3952E-02  7.6606E-02  5.8158E-02  4.6876E-02
  15   1.8625E-02  2.5254E-02  3.7427E-02  5.2267E-02  6.4844E-02  6.9933E-02  6.5727E-02  5.4605E-02  4.2446E-02  3.4832E-02

 HEAD WILL BE SAVED ON UNIT 1043 AT END OF TIME STEP   81, STRESS PERIOD    2


  VOLUME BUDGET FOR ENTIRE MODEL AT END OF TIME STEP   81, STRESS PERIOD   2
  ---------------------------------------------------------------------------------------------------

     CUMULATIVE VOLUME      L**3       RATES FOR THIS TIME STEP      L**3/T          PACKAGE NAME    
     ------------------                 ------------------------                     ----------------

           IN:                                      IN:
           ---                                      ---
              STO-SS =          26.1092                STO-SS =       1.4019E-02     STORAGE                          
              STO-SY =       61612.2463                STO-SY =          28.9548     STORAGE                          
                 WEL =           0.0000                   WEL =           0.0000     WEL-1                            
                 API =      181928.6303                   API =         201.2193     MAR                              
                 CHD =       2.8247E-08                   CHD =           0.0000     CHD_0                            

            TOTAL IN =      243566.9858              TOTAL IN =         230.1881

          OUT:                                     OUT:
          ----                                     ----
              STO-SS =          31.9410                STO-SS =       1.4858E-02     STORAGE                          
              STO-SY =       61606.4146                STO-SY =          28.9539     STORAGE                          
                 WEL =      181928.6302                   WEL =         201.2193     WEL-1                            
                 API =           0.0000                   API =           0.0000     MAR                              
                 CHD =       3.0388E-08                   CHD =           0.0000     CHD_0                            

           TOTAL OUT =      243566.9858             TOTAL OUT =         230.1881

            IN - OUT =       3.2437E-06              IN - OUT =       1.0296E-08

 PERCENT DISCREPANCY =           0.00     PERCENT DISCREPANCY =           0.00




         TIME SUMMARY AT END OF TIME STEP   81 IN STRESS PERIOD    2
                    SECONDS     MINUTES      HOURS       DAYS        YEARS
                    -----------------------------------------------------------
   TIME STEP LENGTH 8.64000E+05  14400.      240.00      10.000     2.73785E-02
 STRESS PERIOD TIME 6.99840E+07 1.16640E+06  19440.      810.00      2.2177    
         TOTAL TIME 7.00704E+07 1.16784E+06  19464.      811.00      2.2204    


end timestep


start timestep kper="2" kstp="82" mode="normal"

 UBDSV1 SAVING           STO-SS ON UNIT   1042 AT TIME STEP     82, STRESS PERIOD      2
 UBDSV1 SAVING           STO-SY ON UNIT   1042 AT TIME STEP     82, STRESS PERIOD      2
 UBDSV1 SAVING     FLOW-JA-FACE ON UNIT   1042 AT TIME STEP     82, STRESS PERIOD      2
 UBDSV06 SAVING       DATA-SPDIS IN MODEL GWF              PACKAGE NPF             CONNECTED TO MODEL GWF              PACKAGE NPF              ON UNIT   1042 AT TIME STEP     82, STRESS PERIOD      2
 UBDSV06 SAVING              WEL IN MODEL GWF              PACKAGE GWF             CONNECTED TO MODEL GWF              PACKAGE WEL-1            ON UNIT   1042 AT TIME STEP     82, STRESS PERIOD      2
 UBDSV06 SAVING              API IN MODEL GWF              PACKAGE GWF             CONNECTED TO MODEL GWF              PACKAGE MAR              ON UNIT   1042 AT TIME STEP     82, STRESS PERIOD      2
 UBDSV06 SAVING              CHD IN MODEL GWF              PACKAGE GWF             CONNECTED TO MODEL GWF              PACKAGE CHD_0            ON UNIT   1042 AT TIME STEP     82, STRESS PERIOD      2

    CALCULATED INTERCELL FLOW FOR PERIOD 2 STEP 82
(1,1,1): (1,1,2) 0.105845 (1,2,1) 0.106823
(1,1,2): (1,1,1) -0.105845 (1,1,3) 0.200119 (1,2,2) 0.165700
(1,1,3): (1,1,2) -0.200119 (1,1,4) 0.253774 (1,2,3) 0.287671
(1,1,4): (1,1,3) -0.253774 (1,1,5) 0.223306 (1,2,4) 0.462993
(1,1,5): (1,1,4) -0.223306 (1,1,6) 9.154606E-02 (1,2,5) 0.636681
(1,1,6): (1,1,5) -9.154606E-02 (1,1,7) -7.941543E-02 (1,2,6) 0.706645
(1,1,7): (1,1,6) 7.941543E-02 (1,1,8) -0.202919 (1,2,7) 0.640954
(1,1,8): (1,1,7) 0.202919 (1,1,9) -0.214977 (1,2,8) 0.474941
(1,1,9): (1,1,8) 0.214977 (1,1,10) -0.131318 (1,2,9) 0.315778
(1,1,10): (1,1,9) 0.131318 (1,2,10) 0.226395
(1,2,1): (1,1,1) -0.106823 (1,2,2) 0.164721 (1,3,1) 0.190913
(1,2,2): (1,1,2) -0.165700 (1,2,1) -0.164721 (1,2,3) 0.322131 (1,3,2) 0.310696
(1,2,3): (1,1,3) -0.287671 (1,2,2) -0.322131 (1,2,4) 0.429039 (1,3,3) 0.574598
(1,2,4): (1,1,4) -0.462993 (1,2,3) -0.429039 (1,2,5) 0.396594 (1,3,4) 0.990595
(1,2,5): (1,1,5) -0.636681 (1,2,4) -0.396594 (1,2,6) 0.161147 (1,3,5) 1.44685
(1,2,6): (1,1,6) -0.706645 (1,2,5) -0.161147 (1,2,7) -0.144755 (1,3,6) 1.62125
(1,2,7): (1,1,7) -0.640954 (1,2,6) 0.144755 (1,2,8) -0.368499 (1,3,7) 1.45417
(1,2,8): (1,1,8) -0.474941 (1,2,7) 0.368499 (1,2,9) -0.373984 (1,3,8) 1.01117
(1,2,9): (1,1,9) -0.315778 (1,2,8) 0.373984 (1,2,10) -0.220619 (1,3,9) 0.624044
(1,2,10): (1,1,10) -0.226395 (1,2,9) 0.220619 (1,3,10) 0.421536
(1,3,1): (1,2,1) -0.190913 (1,3,2) 0.284473 (1,4,1) 0.202867
(1,3,2): (1,2,2) -0.310696 (1,3,1) -0.284473 (1,3,3) 0.586063 (1,4,2) 0.365189
(1,3,3): (1,2,3) -0.574598 (1,3,2) -0.586063 (1,3,4) 0.844461 (1,4,3) 0.772408
(1,3,4): (1,2,4) -0.990595 (1,3,3) -0.844461 (1,3,5) 0.850337 (1,4,4) 1.54910
(1,3,5): (1,2,5) -1.44685 (1,3,4) -0.850337 (1,3,6) 0.333494 (1,4,5) 2.61076
(1,3,6): (1,2,6) -1.62125 (1,3,5) -0.333494 (1,3,7) -0.309834 (1,4,6) 2.94757
(1,3,7): (1,2,7) -1.45417 (1,3,6) 0.309834 (1,3,8) -0.808857 (1,4,7) 2.61797
(1,3,8): (1,2,8) -1.01117 (1,3,7) 0.808857 (1,3,9) -0.760194 (1,4,8) 1.56933
(1,3,9): (1,2,9) -0.624044 (1,3,8) 0.760194 (1,3,10) -0.422735 (1,4,9) 0.822941
(1,3,10): (1,2,10) -0.421536 (1,3,9) 0.422735 (1,4,10) 0.487339
(1,4,1): (1,3,1) -0.202867 (1,4,2) 0.446924 (1,5,1) 7.062798E-02
(1,4,2): (1,3,2) -0.365189 (1,4,1) -0.446924 (1,4,3) 0.994138 (1,5,2) 0.188465
(1,4,3): (1,3,3) -0.772408 (1,4,2) -0.994138 (1,4,4) 1.62167 (1,5,3) 0.606776
(1,4,4): (1,3,4) -1.54910 (1,4,3) -1.62167 (1,4,5) 1.90545 (1,5,4) 1.82179
(1,4,5): (1,3,5) -2.61076 (1,4,4) -1.90545 (1,4,6) 0.663787 (1,5,5) 4.47686
(1,4,6): (1,3,6) -2.94757 (1,4,5) -0.663787 (1,4,7) -0.632969 (1,5,6) 4.90083
(1,4,7): (1,3,7) -2.61797 (1,4,6) 0.632969 (1,4,8) -1.85045 (1,5,7) 4.47893
(1,4,8): (1,3,8) -1.56933 (1,4,7) 1.85045 (1,4,9) -1.50615 (1,5,8) 1.82670
(1,4,9): (1,3,9) -0.822941 (1,4,8) 1.50615 (1,4,10) -0.758132 (1,5,9) 0.620900
(1,4,10): (1,3,10) -0.487339 (1,4,9) 0.758132 (1,5,10) 0.235667
(1,5,1): (1,4,1) -7.062798E-02 (1,5,2) 0.565192 (1,6,1) -0.227573
(1,5,2): (1,4,2) -0.188465 (1,5,1) -0.565192 (1,5,3) 1.41563 (1,6,2) -0.359838
(1,5,3): (1,4,3) -0.606776 (1,5,2) -1.41563 (1,5,4) 2.84775 (1,6,3) -0.467031
(1,5,4): (1,4,4) -1.82179 (1,5,3) -2.84775 (1,5,5) 4.56235 (1,6,4) 0.521136
(1,5,5): (1,4,5) -4.47686 (1,5,4) -4.56235 (1,5,6) 1.07574 (1,6,5) 8.41201
(1,5,6): (1,4,6) -4.90083 (1,5,5) -1.07574 (1,5,7) -1.04277 (1,6,6) 7.49350
(1,5,7): (1,4,7) -4.47893 (1,5,6) 1.04277 (1,5,8) -4.50320 (1,6,7) 8.40470
(1,5,8): (1,4,8) -1.82670 (1,5,7) 4.50320 (1,5,9) -2.72152 (1,6,8) 0.498168
(1,5,9): (1,4,9) -0.620900 (1,5,8) 2.72152 (1,5,10) -1.14526 (1,6,9) -0.526624
(1,5,10): (1,4,10) -0.235667 (1,5,9) 1.14526 (1,6,10) -0.499277
(1,6,1): (1,5,1) 0.227573 (1,6,2) 0.432665 (1,7,1) -0.512678
(1,6,2): (1,5,2) 0.359838 (1,6,1) -0.432665 (1,6,3) 1.30752 (1,7,2) -1.08908
(1,6,3): (1,5,3) 0.467031 (1,6,2) -1.30752 (1,6,4) 3.86370 (1,7,3) -2.88027
(1,6,4): (1,5,4) -0.521136 (1,6,3) -3.86370 (1,6,5) 12.6994 (1,7,4) -8.16847
(1,6,5): (1,5,5) -8.41201 (1,6,4) -12.6994 (1,6,6) 0.206798 (1,7,5) -25.6045
(1,6,6): (1,5,6) -7.49350 (1,6,5) -0.206798 (1,6,7) -0.180838 (1,7,6) -38.5979
(1,6,7): (1,5,7) -8.40470 (1,6,6) 0.180838 (1,6,8) -12.6542 (1,7,7) -25.6201
(1,6,8): (1,5,8) -0.498168 (1,6,7) 12.6542 (1,6,9) -3.77401 (1,7,8) -8.21168
(1,6,9): (1,5,9) 0.526624 (1,6,8) 3.77401 (1,6,10) -1.11778 (1,7,9) -3.00137
(1,6,10): (1,5,10) 0.499277 (1,6,9) 1.11778 (1,7,10) -1.42369
(1,7,1): (1,6,1) 0.512678 (1,7,2) -0.140245 (1,8,1) -0.379103
(1,7,2): (1,6,2) 1.08908 (1,7,1) 0.140245 (1,7,3) -0.459065 (1,8,2) -0.825225
(1,7,3): (1,6,3) 2.88027 (1,7,2) 0.459065 (1,7,4) -1.24124 (1,8,3) -2.22772
(1,7,4): (1,6,4) 8.16847 (1,7,3) 1.24124 (1,7,5) -3.27861 (1,8,4) -6.31097
(1,7,5): (1,6,5) 25.6045 (1,7,4) 3.27861 (1,7,6) -10.3408 (1,8,5) -18.6871
(1,7,6): (1,6,6) 38.5979 (1,7,5) 10.3408 (1,7,7) 10.3545 (1,8,6) -59.3362
(1,7,7): (1,6,7) 25.6201 (1,7,6) -10.3545 (1,7,8) 3.29307 (1,8,7) -18.6980
(1,7,8): (1,6,8) 8.21168 (1,7,7) -3.29307 (1,7,9) 1.25050 (1,8,8) -6.34195
(1,7,9): (1,6,9) 3.00137 (1,7,8) -1.25050 (1,7,10) 0.433745 (1,8,9) -2.31586
(1,7,10): (1,6,10) 1.42369 (1,7,9) -0.433745 (1,8,10) -1.07402
(1,8,1): (1,7,1) 0.379103 (1,8,2) -0.585301 (1,9,1) 7.037801E-02
(1,8,2): (1,7,2) 0.825225 (1,8,1) 0.585301 (1,8,3) -1.85639 (1,9,2) 0.211899
(1,8,3): (1,7,3) 2.22772 (1,8,2) 1.85639 (1,8,4) -5.28300 (1,9,3) 0.799344
(1,8,4): (1,7,4) 6.31097 (1,8,3) 5.28300 (1,8,5) -15.2453 (1,9,4) 3.09619
(1,8,5): (1,7,5) 18.6871 (1,8,4) 15.2453 (1,8,6) -46.5110 (1,9,5) 12.0142
(1,8,6): (1,7,6) 59.3362 (1,8,5) 46.5110 (1,8,7) 46.5166 (1,9,6) 48.5545
(1,8,7): (1,7,7) 18.6980 (1,8,6) -46.5166 (1,8,8) 15.2382 (1,9,7) 12.0156
(1,8,8): (1,7,8) 6.34195 (1,8,7) -15.2382 (1,8,9) 5.23242 (1,9,8) 3.09988
(1,8,9): (1,7,9) 2.31586 (1,8,8) -5.23242 (1,8,10) 1.66756 (1,9,9) 0.812747
(1,8,10): (1,7,10) 1.07402 (1,8,9) -1.66756 (1,9,10) 0.261971
(1,9,1): (1,8,1) -7.037801E-02 (1,9,2) -0.443246 (1,10,1) 0.326776
(1,9,2): (1,8,2) -0.211899 (1,9,1) 0.443246 (1,9,3) -1.26258 (1,10,2) 0.708777
(1,9,3): (1,8,3) -0.799344 (1,9,2) 1.26258 (1,9,4) -2.93304 (1,10,3) 1.89571
(1,9,4): (1,8,4) -3.09619 (1,9,3) 2.93304 (1,9,5) -6.01205 (1,10,4) 5.28989
(1,9,5): (1,8,5) -12.0142 (1,9,4) 6.01205 (1,9,6) -10.7049 (1,10,5) 15.5560
(1,9,6): (1,8,6) -48.5545 (1,9,5) 10.7049 (1,9,7) 10.7098 (1,10,6) 25.9619
(1,9,7): (1,8,7) -12.0156 (1,9,6) -10.7098 (1,9,8) 6.00822 (1,10,7) 15.5641
(1,9,8): (1,8,8) -3.09988 (1,9,7) -6.00822 (1,9,9) 2.89368 (1,10,8) 5.31539
(1,9,9): (1,8,9) -0.812747 (1,9,8) -2.89368 (1,9,10) 1.11195 (1,10,9) 1.97071
(1,9,10): (1,8,10) -0.261971 (1,9,9) -1.11195 (1,10,10) 0.922430
(1,10,1): (1,9,1) -0.326776 (1,10,2) -6.225498E-02 (1,11,1) 0.242958
(1,10,2): (1,9,2) -0.708777 (1,10,1) 6.225498E-02 (1,10,3) -8.307559E-02 (1,11,2) 0.443687
(1,10,3): (1,9,3) -1.89571 (1,10,2) 8.307559E-02 (1,10,4) 0.385658 (1,11,3) 0.863634
(1,10,4): (1,9,4) -5.28989 (1,10,3) -0.385658 (1,10,5) 3.52661 (1,11,4) 1.19009
(1,10,5): (1,9,5) -15.5560 (1,10,4) -3.52661 (1,10,6) -1.69251 (1,11,5) -1.02585
(1,10,6): (1,9,6) -25.9619 (1,10,5) 1.69251 (1,10,7) 1.70429 (1,11,6) 0.633550
(1,10,7): (1,9,7) -15.5641 (1,10,6) -1.70429 (1,10,8) -3.51273 (1,11,7) -1.01930
(1,10,8): (1,9,8) -5.31539 (1,10,7) 3.51273 (1,10,9) -0.374474 (1,11,8) 1.21133
(1,10,9): (1,9,9) -1.97071 (1,10,8) 0.374474 (1,10,10) 7.257042E-02 (1,11,9) 0.923196
(1,10,10): (1,9,10) -0.922430 (1,10,9) -7.257042E-02 (1,11,10) 0.597160
(1,11,1): (1,10,1) -0.242958 (1,11,2) 0.137907 (1,12,1) 5.762284E-02
(1,11,2): (1,10,2) -0.443687 (1,11,1) -0.137907 (1,11,3) 0.334763 (1,12,2) 9.387836E-02
(1,11,3): (1,10,3) -0.863634 (1,11,2) -0.334763 (1,11,4) 0.710619 (1,12,3) 0.122340
(1,11,4): (1,10,4) -1.19009 (1,11,3) -0.710619 (1,11,5) 1.27233 (1,12,4) -3.179252E-02
(1,11,5): (1,10,5) 1.02585 (1,11,4) -1.27233 (1,11,6) -2.659994E-02 (1,12,5) -0.679964
(1,11,6): (1,10,6) -0.633550 (1,11,5) 2.659994E-02 (1,11,7) 4.468334E-02 (1,12,6) -0.493635
(1,11,7): (1,10,7) 1.01930 (1,11,6) -4.468334E-02 (1,11,8) -1.24406 (1,12,7) -0.678800
(1,11,8): (1,10,8) -1.21133 (1,11,7) 1.24406 (1,11,9) -0.661104 (1,12,8) -2.698160E-02
(1,11,9): (1,10,9) -0.923196 (1,11,8) 0.661104 (1,11,10) -0.251377 (1,12,9) 0.137354
(1,11,10): (1,10,10) -0.597160 (1,11,9) 0.251377 (1,12,10) 0.132112
(1,12,1): (1,11,1) -5.762284E-02 (1,12,2) 0.174191 (1,13,1) -6.584172E-02
(1,12,2): (1,11,2) -9.387836E-02 (1,12,1) -0.174191 (1,12,3) 0.363290 (1,13,2) -0.101203
(1,12,3): (1,11,3) -0.122340 (1,12,2) -0.363290 (1,12,4) 0.555614 (1,13,3) -0.193958
(1,12,4): (1,11,4) 3.179252E-02 (1,12,3) -0.555614 (1,12,5) 0.620527 (1,13,4) -0.386297
(1,12,5): (1,11,5) 0.679964 (1,12,4) -0.620527 (1,12,6) 0.158818 (1,13,5) -0.666019
(1,12,6): (1,11,6) 0.493635 (1,12,5) -0.158818 (1,12,7) -0.139557 (1,13,6) -0.701861
(1,12,7): (1,11,7) 0.678800 (1,12,6) 0.139557 (1,12,8) -0.588755 (1,13,7) -0.669096
(1,12,8): (1,11,8) 2.698160E-02 (1,12,7) 0.588755 (1,12,9) -0.495939 (1,13,8) -0.394174
(1,12,9): (1,11,9) -0.137354 (1,12,8) 0.495939 (1,12,10) -0.256624 (1,13,9) -0.210824
(1,12,10): (1,11,10) -0.132112 (1,12,9) 0.256624 (1,13,10) -0.135460
(1,13,1): (1,12,1) 6.584172E-02 (1,13,2) 0.138804 (1,14,1) -9.520207E-02
(1,13,2): (1,12,2) 0.101203 (1,13,1) -0.138804 (1,13,3) 0.270382 (1,14,2) -0.140062
(1,13,3): (1,12,3) 0.193958 (1,13,2) -0.270382 (1,13,4) 0.362961 (1,14,3) -0.234316
(1,13,4): (1,12,4) 0.386297 (1,13,3) -0.362961 (1,13,5) 0.340926 (1,14,4) -0.375625
(1,13,5): (1,12,5) 0.666019 (1,13,4) -0.340926 (1,13,6) 0.123157 (1,14,5) -0.522945
(1,13,6): (1,12,6) 0.701861 (1,13,5) -0.123157 (1,13,7) -0.106964 (1,14,6) -0.569732
(1,13,7): (1,12,7) 0.669096 (1,13,6) 0.106964 (1,13,8) -0.314043 (1,14,7) -0.527122
(1,13,8): (1,12,8) 0.394174 (1,13,7) 0.314043 (1,13,9) -0.312409 (1,14,8) -0.386858
(1,13,9): (1,12,9) 0.210824 (1,13,8) 0.312409 (1,13,10) -0.181227 (1,14,9) -0.259363
(1,13,10): (1,12,10) 0.135460 (1,13,9) 0.181227 (1,14,10) -0.191118
(1,14,1): (1,13,1) 9.520207E-02 (1,14,2) 9.394432E-02 (1,15,1) -6.102123E-02
(1,14,2): (1,13,2) 0.140062 (1,14,1) -9.394432E-02 (1,14,3) 0.176095 (1,15,2) -8.771621E-02
(1,14,3): (1,13,3) 0.234316 (1,14,2) -0.176095 (1,14,4) 0.221669 (1,15,3) -0.140425
(1,14,4): (1,13,4) 0.375625 (1,14,3) -0.221669 (1,14,5) 0.193863 (1,15,4) -0.211812
(1,14,5): (1,13,5) 0.522945 (1,14,4) -0.193863 (1,14,6) 7.657012E-02 (1,15,5) -0.278437
(1,14,6): (1,13,6) 0.569732 (1,14,5) -7.657012E-02 (1,14,7) -6.454333E-02 (1,15,6) -0.303462
(1,14,7): (1,13,7) 0.527122 (1,14,6) 6.454333E-02 (1,14,8) -0.174067 (1,15,7) -0.281137
(1,14,8): (1,13,8) 0.386858 (1,14,7) 0.174067 (1,14,9) -0.185006 (1,15,8) -0.219105
(1,14,9): (1,13,9) 0.259363 (1,14,8) 0.185006 (1,14,10) -0.113034 (1,15,9) -0.156653
(1,14,10): (1,13,10) 0.191118 (1,14,9) 0.113034 (1,15,10) -0.120346
(1,15,1): (1,14,1) 6.102123E-02 (1,15,2) 6.724769E-02
(1,15,2): (1,14,2) 8.771621E-02 (1,15,1) -6.724769E-02 (1,15,3) 0.123368
(1,15,3): (1,14,3) 0.140425 (1,15,2) -0.123368 (1,15,4) 0.150276
(1,15,4): (1,14,4) 0.211812 (1,15,3) -0.150276 (1,15,5) 0.127293
(1,15,5): (1,14,5) 0.278437 (1,15,4) -0.127293 (1,15,6) 5.160004E-02
(1,15,6): (1,14,6) 0.303462 (1,15,5) -5.160004E-02 (1,15,7) -4.227002E-02
(1,15,7): (1,14,7) 0.281137 (1,15,6) 4.227002E-02 (1,15,8) -0.112099
(1,15,8): (1,14,8) 0.219105 (1,15,7) 0.112099 (1,15,9) -0.122576
(1,15,9): (1,14,9) 0.156653 (1,15,8) 0.122576 (1,15,10) -7.674309E-02
(1,15,10): (1,14,10) 0.120346 (1,15,9) 7.674309E-02

 WEL PACKAGE (WEL-1) FLOW RATES   PERIOD      2   STEP       82
 ----------------------------------------------------------------------------------------
   NUMBER   CELLID                    RATE       NAME                                    
 ----------------------------------------------------------------------------------------
     1      (1,8,6)              -201.07707      WEL                                     
 ----------------------------------------------------------------------------------------




 API PACKAGE (MAR) FLOW RATES   PERIOD      2   STEP       82
 -----------------------------------------------
   NUMBER   CELLID                    RATE      
 -----------------------------------------------
     1      (1,6,5)               46.666667     
     2      (1,6,6)               46.666667     
     3      (1,6,7)               46.666667     
     4      (1,10,5)              20.359024     
     5      (1,10,6)              20.359024     
     6      (1,10,7)              20.359024     
 -----------------------------------------------



1
  HEAD IN LAYER   1 AT END OF TIME STEP  82 IN STRESS PERIOD    2
  ---------------------------------------------------------------------------

            1           2           3           4           5           6           7           8           9          10
 ........................................................................................................................
   1   2.6392E-02  3.6938E-02  5.6837E-02  8.2008E-02  0.1041      0.1132      0.1053      8.5227E-02  6.3911E-02  5.0863E-02
   2   3.7035E-02  5.3420E-02  8.5360E-02  0.1277      0.1667      0.1826      0.1683      0.1321      9.5191E-02  7.3337E-02
   3   5.6020E-02  8.4230E-02  0.1420      0.2246      0.3071      0.3394      0.3094      0.2309      0.1566      0.1150    
   4   7.6153E-02  0.1203      0.2176      0.3739      0.5545      0.6170      0.5574      0.3821      0.2370      0.1630    
   5   8.3158E-02  0.1389      0.2767      0.5467      0.9628       1.060      0.9658      0.5552      0.2973      0.1861    
   6   6.0588E-02  0.1034      0.2312      0.5959       1.683       1.701       1.685      0.6021      0.2462      0.1371    
   7   9.6294E-03 -4.3816E-03 -5.0308E-02 -0.1751     -0.5088      -1.598     -0.5075     -0.1724     -4.6748E-02 -3.3593E-03
   8  -2.8244E-02 -8.6940E-02 -0.2742     -0.8174      -2.478      -8.661      -2.477     -0.8177     -0.2794     -0.1108    
   9  -2.1192E-02 -6.5610E-02 -0.1927     -0.4918      -1.124      -2.330      -1.124     -0.4917     -0.1965     -8.4378E-02
  10   1.1449E-02  5.2302E-03 -3.0730E-03  3.5357E-02  0.3753      0.2121      0.3764      3.7848E-02  5.4219E-04  7.7936E-03
  11   3.5658E-02  4.9381E-02  8.2583E-02  0.1526      0.2764      0.2738      0.2781      0.1571      9.2020E-02  6.7111E-02
  12   4.1397E-02  5.8714E-02  9.4702E-02  0.1494      0.2102      0.2258      0.2121      0.1545      0.1056      8.0218E-02
  13   3.4840E-02  4.8653E-02  7.5488E-02  0.1114      0.1450      0.1571      0.1466      0.1156      8.4750E-02  6.6779E-02
  14   2.5352E-02  3.4714E-02  5.2232E-02  7.4236E-02  9.3443E-02  0.1010      9.4633E-02  7.7390E-02  5.9031E-02  4.7794E-02
  15   1.9266E-02  2.5973E-02  3.8263E-02  5.3211E-02  6.5857E-02  7.0981E-02  6.6783E-02  5.5648E-02  4.3458E-02  3.5817E-02

 HEAD WILL BE SAVED ON UNIT 1043 AT END OF TIME STEP   82, STRESS PERIOD    2


  VOLUME BUDGET FOR ENTIRE MODEL AT END OF TIME STEP   82, STRESS PERIOD   2
  ---------------------------------------------------------------------------------------------------

     CUMULATIVE VOLUME      L**3       RATES FOR THIS TIME STEP      L**3/T          PACKAGE NAME    
     ------------------                 ------------------------                     ----------------

           IN:                                      IN:
           ---                                      ---
              STO-SS =          26.2481                STO-SS =       1.3897E-02     STORAGE                          
              STO-SY =       61899.2556                STO-SY =          28.7009     STORAGE                          
                 WEL =           0.0000                   WEL =           0.0000     WEL-1                            
                 API =      183939.4010                   API =         201.0771     MAR                              
                 CHD =       2.8247E-08                   CHD =           0.0000     CHD_0                            

            TOTAL IN =      245864.9048              TOTAL IN =         229.7919

          OUT:                                     OUT:
          ----                                     ----
              STO-SS =          32.0882                STO-SS =       1.4729E-02     STORAGE                          
              STO-SY =       61893.4156                STO-SY =          28.7001     STORAGE                          
                 WEL =      183939.4010                   WEL =         201.0771     WEL-1                            
                 API =           0.0000                   API =           0.0000     MAR                              
                 CHD =       3.0388E-08                   CHD =           0.0000     CHD_0                            

           TOTAL OUT =      245864.9048             TOTAL OUT =         229.7919

            IN - OUT =       3.3462E-06              IN - OUT =       1.0250E-08

 PERCENT DISCREPANCY =           0.00     PERCENT DISCREPANCY =           0.00




         TIME SUMMARY AT END OF TIME STEP   82 IN STRESS PERIOD    2
                    SECONDS     MINUTES      HOURS       DAYS        YEARS
                    -----------------------------------------------------------
   TIME STEP LENGTH 8.64000E+05  14400.      240.00      10.000     2.73785E-02
 STRESS PERIOD TIME 7.08480E+07 1.18080E+06  19680.      820.00      2.2450    
         TOTAL TIME 7.09344E+07 1.18224E+06  19704.      821.00      2.2478    


end timestep


start timestep kper="2" kstp="83" mode="normal"

 UBDSV1 SAVING           STO-SS ON UNIT   1042 AT TIME STEP     83, STRESS PERIOD      2
 UBDSV1 SAVING           STO-SY ON UNIT   1042 AT TIME STEP     83, STRESS PERIOD      2
 UBDSV1 SAVING     FLOW-JA-FACE ON UNIT   1042 AT TIME STEP     83, STRESS PERIOD      2
 UBDSV06 SAVING       DATA-SPDIS IN MODEL GWF              PACKAGE NPF             CONNECTED TO MODEL GWF              PACKAGE NPF              ON UNIT   1042 AT TIME STEP     83, STRESS PERIOD      2
 UBDSV06 SAVING              WEL IN MODEL GWF              PACKAGE GWF             CONNECTED TO MODEL GWF              PACKAGE WEL-1            ON UNIT   1042 AT TIME STEP     83, STRESS PERIOD      2
 UBDSV06 SAVING              API IN MODEL GWF              PACKAGE GWF             CONNECTED TO MODEL GWF              PACKAGE MAR              ON UNIT   1042 AT TIME STEP     83, STRESS PERIOD      2
 UBDSV06 SAVING              CHD IN MODEL GWF              PACKAGE GWF             CONNECTED TO MODEL GWF              PACKAGE CHD_0            ON UNIT   1042 AT TIME STEP     83, STRESS PERIOD      2

    CALCULATED INTERCELL FLOW FOR PERIOD 2 STEP 83
(1,1,1): (1,1,2) 0.108215 (1,2,1) 0.108604
(1,1,2): (1,1,1) -0.108215 (1,1,3) 0.204208 (1,2,2) 0.167790
(1,1,3): (1,1,2) -0.204208 (1,1,4) 0.258379 (1,2,3) 0.290271
(1,1,4): (1,1,3) -0.258379 (1,1,5) 0.226980 (1,2,4) 0.466134
(1,1,5): (1,1,4) -0.226980 (1,1,6) 9.311584E-02 (1,2,5) 0.640234
(1,1,6): (1,1,5) -9.311584E-02 (1,1,7) -8.032912E-02 (1,2,6) 0.710386
(1,1,7): (1,1,6) 8.032912E-02 (1,1,8) -0.205670 (1,2,7) 0.644625
(1,1,8): (1,1,7) 0.205670 (1,1,9) -0.218164 (1,2,8) 0.478354
(1,1,9): (1,1,8) 0.218164 (1,1,10) -0.133405 (1,2,9) 0.318872
(1,1,10): (1,1,9) 0.133405 (1,2,10) 0.229268
(1,2,1): (1,1,1) -0.108604 (1,2,2) 0.167401 (1,3,1) 0.193248
(1,2,2): (1,1,2) -0.167790 (1,2,1) -0.167401 (1,2,3) 0.326732 (1,3,2) 0.313338
(1,2,3): (1,1,3) -0.290271 (1,2,2) -0.326732 (1,2,4) 0.434188 (1,3,3) 0.577720
(1,2,4): (1,1,4) -0.466134 (1,2,3) -0.434188 (1,2,5) 0.400681 (1,3,4) 0.994182
(1,2,5): (1,1,5) -0.640234 (1,2,4) -0.400681 (1,2,6) 0.162903 (1,3,5) 1.45077
(1,2,6): (1,1,6) -0.710386 (1,2,5) -0.162903 (1,2,7) -0.145737 (1,3,6) 1.62534
(1,2,7): (1,1,7) -0.644625 (1,2,6) 0.145737 (1,2,8) -0.371506 (1,3,7) 1.45825
(1,2,8): (1,1,8) -0.478354 (1,2,7) 0.371506 (1,2,9) -0.377490 (1,3,8) 1.01513
(1,2,9): (1,1,9) -0.318872 (1,2,8) 0.377490 (1,2,10) -0.222925 (1,3,9) 0.627806
(1,2,10): (1,1,10) -0.229268 (1,2,9) 0.222925 (1,3,10) 0.425148
(1,3,1): (1,2,1) -0.193248 (1,3,2) 0.287461 (1,4,1) 0.203717
(1,3,2): (1,2,2) -0.313338 (1,3,1) -0.287461 (1,3,3) 0.591148 (1,4,2) 0.365865
(1,3,3): (1,2,3) -0.577720 (1,3,2) -0.591148 (1,3,4) 0.850083 (1,4,3) 0.772725
(1,3,4): (1,2,4) -0.994182 (1,3,3) -0.850083 (1,3,5) 0.854755 (1,4,4) 1.54894
(1,3,5): (1,2,5) -1.45077 (1,3,4) -0.854755 (1,3,6) 0.335424 (1,4,5) 2.61016
(1,3,6): (1,2,6) -1.62534 (1,3,5) -0.335424 (1,3,7) -0.310827 (1,4,6) 2.94688
(1,3,7): (1,2,7) -1.45825 (1,3,6) 0.310827 (1,3,8) -0.811987 (1,4,7) 2.61745
(1,3,8): (1,2,8) -1.01513 (1,3,7) 0.811987 (1,3,9) -0.763892 (1,4,8) 1.56933
(1,3,9): (1,2,9) -0.627806 (1,3,8) 0.763892 (1,3,10) -0.425188 (1,4,9) 0.823475
(1,3,10): (1,2,10) -0.425148 (1,3,9) 0.425188 (1,4,10) 0.488200
(1,4,1): (1,3,1) -0.203717 (1,4,2) 0.449741 (1,5,1) 6.816799E-02
(1,4,2): (1,3,2) -0.365865 (1,4,1) -0.449741 (1,4,3) 0.998882 (1,5,2) 0.184979
(1,4,3): (1,3,3) -0.772725 (1,4,2) -0.998882 (1,4,4) 1.62685 (1,5,3) 0.601544
(1,4,4): (1,3,4) -1.54894 (1,4,3) -1.62685 (1,4,5) 1.90948 (1,5,4) 1.81467
(1,4,5): (1,3,5) -2.61016 (1,4,4) -1.90948 (1,4,6) 0.665650 (1,5,5) 4.46821
(1,4,6): (1,3,6) -2.94688 (1,4,5) -0.665650 (1,4,7) -0.633804 (1,5,6) 4.89188
(1,4,7): (1,3,7) -2.61745 (1,4,6) 0.633804 (1,4,8) -1.85310 (1,5,7) 4.47019
(1,4,8): (1,3,8) -1.56933 (1,4,7) 1.85310 (1,4,9) -1.50934 (1,5,8) 1.81928
(1,4,9): (1,3,9) -0.823475 (1,4,8) 1.50934 (1,4,10) -0.760263 (1,5,9) 0.614958
(1,4,10): (1,3,10) -0.488200 (1,4,9) 0.760263 (1,5,10) 0.230749
(1,5,1): (1,4,1) -6.816799E-02 (1,5,2) 0.566984 (1,6,1) -0.233621
(1,5,2): (1,4,2) -0.184979 (1,5,1) -0.566984 (1,5,3) 1.41865 (1,6,2) -0.367768
(1,5,3): (1,4,3) -0.601544 (1,5,2) -1.41865 (1,5,4) 2.85112 (1,6,3) -0.478020
(1,5,4): (1,4,4) -1.81467 (1,5,3) -2.85112 (1,5,5) 4.56510 (1,6,4) 0.507248
(1,5,5): (1,4,5) -4.46821 (1,5,4) -4.56510 (1,5,6) 1.07735 (1,6,5) 8.39592
(1,5,6): (1,4,6) -4.89188 (1,5,5) -1.07735 (1,5,7) -1.04344 (1,6,6) 7.47768
(1,5,7): (1,4,7) -4.47019 (1,5,6) 1.04344 (1,5,8) -4.50475 (1,6,7) 8.38830
(1,5,8): (1,4,8) -1.81928 (1,5,7) 4.50475 (1,5,9) -2.72331 (1,6,8) 0.483476
(1,5,9): (1,4,9) -0.614958 (1,5,8) 2.72331 (1,5,10) -1.14639 (1,6,9) -0.539306
(1,5,10): (1,4,10) -0.230749 (1,5,9) 1.14639 (1,6,10) -0.510343
(1,6,1): (1,5,1) 0.233621 (1,6,2) 0.432580 (1,7,1) -0.520433
(1,6,2): (1,5,2) 0.367768 (1,6,1) -0.432580 (1,6,3) 1.30746 (1,7,2) -1.09918
(1,6,3): (1,5,3) 0.478020 (1,6,2) -1.30746 (1,6,4) 3.86413 (1,7,3) -2.89417
(1,6,4): (1,5,4) -0.507248 (1,6,3) -3.86413 (1,6,5) 12.7009 (1,7,4) -8.18593
(1,6,5): (1,5,5) -8.39592 (1,6,4) -12.7009 (1,6,6) 0.208535 (1,7,5) -25.6234
(1,6,6): (1,5,6) -7.47768 (1,6,5) -0.208535 (1,6,7) -0.181940 (1,7,6) -38.6141
(1,6,7): (1,5,7) -8.38830 (1,6,6) 0.181940 (1,6,8) -12.6550 (1,7,7) -25.6395
(1,6,8): (1,5,8) -0.483476 (1,6,7) 12.6550 (1,6,9) -3.77374 (1,7,8) -8.23016
(1,6,9): (1,5,9) 0.539306 (1,6,8) 3.77374 (1,6,10) -1.11729 (1,7,9) -3.01740
(1,6,10): (1,5,10) 0.510343 (1,6,9) 1.11729 (1,7,10) -1.43773
(1,7,1): (1,6,1) 0.520433 (1,7,2) -0.142607 (1,8,1) -0.385553
(1,7,2): (1,6,2) 1.09918 (1,7,1) 0.142607 (1,7,3) -0.462677 (1,8,2) -0.834075
(1,7,3): (1,6,3) 2.89417 (1,7,2) 0.462677 (1,7,4) -1.24355 (1,8,3) -2.24081
(1,7,4): (1,6,4) 8.18593 (1,7,3) 1.24355 (1,7,5) -3.27659 (1,8,4) -6.32850
(1,7,5): (1,6,5) 25.6234 (1,7,4) 3.27659 (1,7,6) -10.3354 (1,8,5) -18.7052
(1,7,6): (1,6,6) 38.6141 (1,7,5) 10.3354 (1,7,7) 10.3493 (1,8,6) -59.3396
(1,7,7): (1,6,7) 25.6395 (1,7,6) -10.3493 (1,7,8) 3.29113 (1,8,7) -18.7165
(1,7,8): (1,6,8) 8.23016 (1,7,7) -3.29113 (1,7,9) 1.25237 (1,8,8) -6.36029
(1,7,9): (1,6,9) 3.01740 (1,7,8) -1.25237 (1,7,10) 0.435983 (1,8,9) -2.33070
(1,7,10): (1,6,10) 1.43773 (1,7,9) -0.435983 (1,8,10) -1.08625
(1,8,1): (1,7,1) 0.385553 (1,8,2) -0.590039 (1,9,1) 6.776913E-02
(1,8,2): (1,7,2) 0.834075 (1,8,1) 0.590039 (1,8,3) -1.86415 (1,9,2) 0.207437
(1,8,3): (1,7,3) 2.24081 (1,8,2) 1.86415 (1,8,4) -5.28924 (1,9,3) 0.790597
(1,8,4): (1,7,4) 6.32850 (1,8,3) 5.28924 (1,8,5) -15.2411 (1,9,4) 3.07929
(1,8,5): (1,7,5) 18.7052 (1,8,4) 15.2411 (1,8,6) -46.4790 (1,9,5) 11.9810
(1,8,6): (1,7,6) 59.3396 (1,8,5) 46.4790 (1,8,7) 46.4846 (1,9,6) 48.4797
(1,8,7): (1,7,7) 18.7165 (1,8,6) -46.4846 (1,8,8) 15.2336 (1,9,7) 11.9823
(1,8,8): (1,7,8) 6.36029 (1,8,7) -15.2336 (1,8,9) 5.23721 (1,9,8) 3.08271
(1,8,9): (1,7,9) 2.33070 (1,8,8) -5.23721 (1,8,10) 1.67227 (1,9,9) 0.803325
(1,8,10): (1,7,10) 1.08625 (1,8,9) -1.67227 (1,9,10) 0.255915
(1,9,1): (1,8,1) -6.776913E-02 (1,9,2) -0.449831 (1,10,1) 0.328698
(1,9,2): (1,8,2) -0.207437 (1,9,1) 0.449831 (1,9,3) -1.27457 (1,10,2) 0.710379
(1,9,3): (1,8,3) -0.790597 (1,9,2) 1.27457 (1,9,4) -2.94702 (1,10,3) 1.89557
(1,9,4): (1,8,4) -3.07929 (1,9,3) 2.94702 (1,9,5) -6.02156 (1,10,4) 5.28363
(1,9,5): (1,8,5) -11.9810 (1,9,4) 6.02156 (1,9,6) -10.6992 (1,10,5) 15.5304
(1,9,6): (1,8,6) -48.4797 (1,9,5) 10.6992 (1,9,7) 10.7041 (1,10,6) 25.9224
(1,9,7): (1,8,7) -11.9823 (1,9,6) -10.7041 (1,9,8) 6.01711 (1,10,7) 15.5387
(1,9,8): (1,8,8) -3.08271 (1,9,7) -6.01711 (1,9,9) 2.90582 (1,10,8) 5.30942
(1,9,9): (1,8,9) -0.803325 (1,9,8) -2.90582 (1,9,10) 1.11996 (1,10,9) 1.97112
(1,9,10): (1,8,10) -0.255915 (1,9,9) -1.11996 (1,10,10) 0.924752
(1,10,1): (1,9,1) -0.328698 (1,10,2) -6.913933E-02 (1,11,1) 0.247835
(1,10,2): (1,9,2) -0.710379 (1,10,1) 6.913933E-02 (1,10,3) -9.665747E-02 (1,11,2) 0.450193
(1,10,3): (1,9,3) -1.89557 (1,10,2) 9.665747E-02 (1,10,4) 0.366130 (1,11,3) 0.873168
(1,10,4): (1,9,4) -5.28363 (1,10,3) -0.366130 (1,10,5) 3.49982 (1,11,4) 1.20437
(1,10,5): (1,9,5) -15.5304 (1,10,4) -3.49982 (1,10,6) -1.69794 (1,11,5) -1.00061
(1,10,6): (1,9,6) -25.9224 (1,10,5) 1.69794 (1,10,7) 1.70972 (1,11,6) 0.658898
(1,10,7): (1,9,7) -15.5387 (1,10,6) -1.70972 (1,10,8) -3.48636 (1,11,7) -0.993838
(1,10,8): (1,9,8) -5.30942 (1,10,7) 3.48636 (1,10,9) -0.356489 (1,11,8) 1.22621
(1,10,9): (1,9,9) -1.97112 (1,10,8) 0.356489 (1,10,10) 8.241539E-02 (1,11,9) 0.934042
(1,10,10): (1,9,10) -0.924752 (1,10,9) -8.241539E-02 (1,11,10) 0.606170
(1,11,1): (1,10,1) -0.247835 (1,11,2) 0.132631 (1,12,1) 6.257064E-02
(1,11,2): (1,10,2) -0.450193 (1,11,1) -0.132631 (1,11,3) 0.324133 (1,12,2) 0.101221
(1,11,3): (1,10,3) -0.873168 (1,11,2) -0.324133 (1,11,4) 0.695723 (1,12,3) 0.134326
(1,11,4): (1,10,4) -1.20437 (1,11,3) -0.695723 (1,11,5) 1.25706 (1,12,4) -1.338206E-02
(1,11,5): (1,10,5) 1.00061 (1,11,4) -1.25706 (1,11,6) -3.174453E-02 (1,12,5) -0.654337
(1,11,6): (1,10,6) -0.658898 (1,11,5) 3.174453E-02 (1,11,7) 5.005174E-02 (1,12,6) -0.465890
(1,11,7): (1,10,7) 0.993838 (1,11,6) -5.005174E-02 (1,11,8) -1.22883 (1,12,7) -0.652988
(1,11,8): (1,10,8) -1.22621 (1,11,7) 1.22883 (1,11,9) -0.647049 (1,12,8) -8.025943E-03
(1,11,9): (1,10,9) -0.934042 (1,11,8) 0.647049 (1,11,10) -0.243310 (1,12,9) 0.150664
(1,11,10): (1,10,10) -0.606170 (1,11,9) 0.243310 (1,12,10) 0.142265
(1,12,1): (1,11,1) -6.257064E-02 (1,12,2) 0.171308 (1,13,1) -6.280128E-02
(1,12,2): (1,11,2) -0.101221 (1,12,1) -0.171308 (1,12,3) 0.357310 (1,13,2) -9.617244E-02
(1,12,3): (1,11,3) -0.134326 (1,12,2) -0.357310 (1,12,4) 0.547209 (1,13,3) -0.185059
(1,12,4): (1,11,4) 1.338206E-02 (1,12,3) -0.547209 (1,12,5) 0.612445 (1,13,4) -0.372255
(1,12,5): (1,11,5) 0.654337 (1,12,4) -0.612445 (1,12,6) 0.155824 (1,13,5) -0.647095
(1,12,6): (1,11,6) 0.465890 (1,12,5) -0.155824 (1,12,7) -0.136156 (1,13,6) -0.681114
(1,12,7): (1,11,7) 0.652988 (1,12,6) 0.136156 (1,12,8) -0.580350 (1,13,7) -0.650095
(1,12,8): (1,11,8) 8.025943E-03 (1,12,7) 0.580350 (1,12,9) -0.487592 (1,13,8) -0.379850
(1,12,9): (1,11,9) -0.150664 (1,12,8) 0.487592 (1,12,10) -0.251717 (1,13,9) -0.201113
(1,12,10): (1,11,10) -0.142265 (1,12,9) 0.251717 (1,13,10) -0.128480
(1,13,1): (1,12,1) 6.280128E-02 (1,13,2) 0.137912 (1,14,1) -9.416023E-02
(1,13,2): (1,12,2) 9.617244E-02 (1,13,1) -0.137912 (1,13,3) 0.268273 (1,14,2) -0.137856
(1,13,3): (1,12,3) 0.185059 (1,13,2) -0.268273 (1,13,4) 0.359698 (1,14,3) -0.229821
(1,13,4): (1,12,4) 0.372255 (1,13,3) -0.359698 (1,13,5) 0.337696 (1,14,4) -0.368101
(1,13,5): (1,12,5) 0.647095 (1,13,4) -0.337696 (1,13,6) 0.121971 (1,14,5) -0.512660
(1,13,6): (1,12,6) 0.681114 (1,13,5) -0.121971 (1,13,7) -0.105295 (1,14,6) -0.558366
(1,13,7): (1,12,7) 0.650095 (1,13,6) 0.105295 (1,13,8) -0.310284 (1,14,7) -0.516848
(1,13,8): (1,12,8) 0.379850 (1,13,7) 0.310284 (1,13,9) -0.308670 (1,14,8) -0.379293
(1,13,9): (1,12,9) 0.201113 (1,13,8) 0.308670 (1,13,10) -0.179049 (1,14,9) -0.254594
(1,13,10): (1,12,10) 0.128480 (1,13,9) 0.179049 (1,14,10) -0.188035
(1,14,1): (1,13,1) 9.416023E-02 (1,14,2) 9.421683E-02 (1,15,1) -6.094933E-02
(1,14,2): (1,13,2) 0.137856 (1,14,1) -9.421683E-02 (1,14,3) 0.176273 (1,15,2) -8.717380E-02
(1,14,3): (1,13,3) 0.229821 (1,14,2) -0.176273 (1,14,4) 0.221429 (1,15,3) -0.138942
(1,14,4): (1,13,4) 0.368101 (1,14,3) -0.221429 (1,14,5) 0.193381 (1,15,4) -0.209069
(1,14,5): (1,13,5) 0.512660 (1,14,4) -0.193381 (1,14,6) 7.645562E-02 (1,15,5) -0.274552
(1,14,6): (1,13,6) 0.558366 (1,14,5) -7.645562E-02 (1,14,7) -6.395682E-02 (1,15,6) -0.299128
(1,14,7): (1,13,7) 0.516848 (1,14,6) 6.395682E-02 (1,14,8) -0.173003 (1,15,7) -0.277284
(1,14,8): (1,13,8) 0.379293 (1,14,7) 0.173003 (1,14,9) -0.184057 (1,15,8) -0.216405
(1,14,9): (1,13,9) 0.254594 (1,14,8) 0.184057 (1,14,10) -0.112539 (1,15,9) -0.155155
(1,14,10): (1,13,10) 0.188035 (1,14,9) 0.112539 (1,15,10) -0.119576
(1,15,1): (1,14,1) 6.094933E-02 (1,15,2) 6.799054E-02
(1,15,2): (1,14,2) 8.717380E-02 (1,15,1) -6.799054E-02 (1,15,3) 0.124485
(1,15,3): (1,14,3) 0.138942 (1,15,2) -0.124485 (1,15,4) 0.151293
(1,15,4): (1,14,4) 0.209069 (1,15,3) -0.151293 (1,15,5) 0.127950
(1,15,5): (1,14,5) 0.274552 (1,15,4) -0.127950 (1,15,6) 5.193243E-02
(1,15,6): (1,14,6) 0.299128 (1,15,5) -5.193243E-02 (1,15,7) -4.216224E-02
(1,15,7): (1,14,7) 0.277284 (1,15,6) 4.216224E-02 (1,15,8) -0.112186
(1,15,8): (1,14,8) 0.216405 (1,15,7) 0.112186 (1,15,9) -0.122827
(1,15,9): (1,14,9) 0.155155 (1,15,8) 0.122827 (1,15,10) -7.697451E-02
(1,15,10): (1,14,10) 0.119576 (1,15,9) 7.697451E-02

 WEL PACKAGE (WEL-1) FLOW RATES   PERIOD      2   STEP       83
 ----------------------------------------------------------------------------------------
   NUMBER   CELLID                    RATE       NAME                                    
 ----------------------------------------------------------------------------------------
     1      (1,8,6)              -200.93805      WEL                                     
 ----------------------------------------------------------------------------------------




 API PACKAGE (MAR) FLOW RATES   PERIOD      2   STEP       83
 -----------------------------------------------
   NUMBER   CELLID                    RATE      
 -----------------------------------------------
     1      (1,6,5)               46.666667     
     2      (1,6,6)               46.666667     
     3      (1,6,7)               46.666667     
     4      (1,10,5)              20.312682     
     5      (1,10,6)              20.312682     
     6      (1,10,7)              20.312682     
 -----------------------------------------------



1
  HEAD IN LAYER   1 AT END OF TIME STEP  83 IN STRESS PERIOD    2
  ---------------------------------------------------------------------------

            1           2           3           4           5           6           7           8           9          10
 ........................................................................................................................
   1   2.7476E-02  3.8256E-02  5.8558E-02  8.4180E-02  0.1066      0.1158      0.1079      8.7555E-02  6.5928E-02  5.2675E-02
   2   3.8295E-02  5.4943E-02  8.7334E-02  0.1302      0.1696      0.1856      0.1713      0.1348      9.7508E-02  7.5430E-02
   3   5.7509E-02  8.6010E-02  0.1443      0.2274      0.3103      0.3427      0.3127      0.2339      0.1593      0.1175    
   4   7.7724E-02  0.1222      0.2199      0.3767      0.5575      0.6202      0.5605      0.3851      0.2397      0.1655    
   5   8.4483E-02  0.1404      0.2784      0.5487      0.9650       1.062      0.9681      0.5574      0.2994      0.1881    
   6   6.1317E-02  0.1041      0.2319      0.5966       1.684       1.701       1.686      0.6030      0.2471      0.1380    
   7   9.5908E-03 -4.6563E-03 -5.0946E-02 -0.1759     -0.5095      -1.598     -0.5081     -0.1732     -4.7396E-02 -3.7816E-03
   8  -2.8928E-02 -8.8103E-02 -0.2762     -0.8201      -2.480      -8.661      -2.480     -0.8205     -0.2816     -0.1124    
   9  -2.2136E-02 -6.7219E-02 -0.1955     -0.4961      -1.130      -2.336      -1.129     -0.4961     -0.1996     -8.6632E-02
  10   1.0699E-02  3.7924E-03 -5.8696E-03  3.0632E-02  0.3682      0.2044      0.3693      3.3084E-02 -2.4472E-03  5.7896E-03
  11   3.5395E-02  4.8594E-02  8.0748E-02  0.1493      0.2717      0.2686      0.2735      0.1538      9.0123E-02  6.6009E-02
  12   4.1626E-02  5.8657E-02  9.4055E-02  0.1480      0.2080      0.2232      0.2099      0.1531      0.1050      8.0122E-02
  13   3.5372E-02  4.9096E-02  7.5722E-02  0.1113      0.1446      0.1566      0.1462      0.1156      8.5130E-02  6.7377E-02
  14   2.5989E-02  3.5378E-02  5.2912E-02  7.4891E-02  9.4048E-02  0.1016      9.5286E-02  7.8149E-02  5.9886E-02  4.8699E-02
  15   1.9910E-02  2.6691E-02  3.9091E-02  5.4139E-02  6.6849E-02  7.2005E-02  6.7819E-02  5.6676E-02  4.4463E-02  3.6799E-02

 HEAD WILL BE SAVED ON UNIT 1043 AT END OF TIME STEP   83, STRESS PERIOD    2


  VOLUME BUDGET FOR ENTIRE MODEL AT END OF TIME STEP   83, STRESS PERIOD   2
  ---------------------------------------------------------------------------------------------------

     CUMULATIVE VOLUME      L**3       RATES FOR THIS TIME STEP      L**3/T          PACKAGE NAME    
     ------------------                 ------------------------                     ----------------

           IN:                                      IN:
           ---                                      ---
              STO-SS =          26.3859                STO-SS =       1.3777E-02     STORAGE                          
              STO-SY =       62183.7506                STO-SY =          28.4495     STORAGE                          
                 WEL =           0.0000                   WEL =           0.0000     WEL-1                            
                 API =      185948.7815                   API =         200.9380     MAR                              
                 CHD =       2.8247E-08                   CHD =           0.0000     CHD_0                            

            TOTAL IN =      248158.9180              TOTAL IN =         229.4013

          OUT:                                     OUT:
          ----                                     ----
              STO-SS =          32.2343                STO-SS =       1.4601E-02     STORAGE                          
              STO-SY =       62177.9023                STO-SY =          28.4487     STORAGE                          
                 WEL =      185948.7814                   WEL =         200.9380     WEL-1                            
                 API =           0.0000                   API =           0.0000     MAR                              
                 CHD =       3.0388E-08                   CHD =           0.0000     CHD_0                            

           TOTAL OUT =      248158.9180             TOTAL OUT =         229.4013

            IN - OUT =       3.4480E-06              IN - OUT =       1.0186E-08

 PERCENT DISCREPANCY =           0.00     PERCENT DISCREPANCY =           0.00




         TIME SUMMARY AT END OF TIME STEP   83 IN STRESS PERIOD    2
                    SECONDS     MINUTES      HOURS       DAYS        YEARS
                    -----------------------------------------------------------
   TIME STEP LENGTH 8.64000E+05  14400.      240.00      10.000     2.73785E-02
 STRESS PERIOD TIME 7.17120E+07 1.19520E+06  19920.      830.00      2.2724    
         TOTAL TIME 7.17984E+07 1.19664E+06  19944.      831.00      2.2752    


end timestep


start timestep kper="2" kstp="84" mode="normal"

 UBDSV1 SAVING           STO-SS ON UNIT   1042 AT TIME STEP     84, STRESS PERIOD      2
 UBDSV1 SAVING           STO-SY ON UNIT   1042 AT TIME STEP     84, STRESS PERIOD      2
 UBDSV1 SAVING     FLOW-JA-FACE ON UNIT   1042 AT TIME STEP     84, STRESS PERIOD      2
 UBDSV06 SAVING       DATA-SPDIS IN MODEL GWF              PACKAGE NPF             CONNECTED TO MODEL GWF              PACKAGE NPF              ON UNIT   1042 AT TIME STEP     84, STRESS PERIOD      2
 UBDSV06 SAVING              WEL IN MODEL GWF              PACKAGE GWF             CONNECTED TO MODEL GWF              PACKAGE WEL-1            ON UNIT   1042 AT TIME STEP     84, STRESS PERIOD      2
 UBDSV06 SAVING              API IN MODEL GWF              PACKAGE GWF             CONNECTED TO MODEL GWF              PACKAGE MAR              ON UNIT   1042 AT TIME STEP     84, STRESS PERIOD      2
 UBDSV06 SAVING              CHD IN MODEL GWF              PACKAGE GWF             CONNECTED TO MODEL GWF              PACKAGE CHD_0            ON UNIT   1042 AT TIME STEP     84, STRESS PERIOD      2

    CALCULATED INTERCELL FLOW FOR PERIOD 2 STEP 84
(1,1,1): (1,1,2) 0.110568 (1,2,1) 0.110338
(1,1,2): (1,1,1) -0.110568 (1,1,3) 0.208262 (1,2,2) 0.169814
(1,1,3): (1,1,2) -0.208262 (1,1,4) 0.262939 (1,2,3) 0.292770
(1,1,4): (1,1,3) -0.262939 (1,1,5) 0.230617 (1,2,4) 0.469136
(1,1,5): (1,1,4) -0.230617 (1,1,6) 9.467674E-02 (1,2,5) 0.643620
(1,1,6): (1,1,5) -9.467674E-02 (1,1,7) -8.121421E-02 (1,2,6) 0.713949
(1,1,7): (1,1,6) 8.121421E-02 (1,1,8) -0.208364 (1,2,7) 0.648127
(1,1,8): (1,1,7) 0.208364 (1,1,9) -0.221291 (1,2,8) 0.481623
(1,1,9): (1,1,8) 0.221291 (1,1,10) -0.135454 (1,2,9) 0.321851
(1,1,10): (1,1,9) 0.135454 (1,2,10) 0.232047
(1,2,1): (1,1,1) -0.110338 (1,2,2) 0.170044 (1,3,1) 0.195496
(1,2,2): (1,1,2) -0.169814 (1,2,1) -0.170044 (1,2,3) 0.331265 (1,3,2) 0.315865
(1,2,3): (1,1,3) -0.292770 (1,2,2) -0.331265 (1,2,4) 0.439254 (1,3,3) 0.580677
(1,2,4): (1,1,4) -0.469136 (1,2,3) -0.439254 (1,2,5) 0.404702 (1,3,4) 0.997554
(1,2,5): (1,1,5) -0.643620 (1,2,4) -0.404702 (1,2,6) 0.164639 (1,3,5) 1.45443
(1,2,6): (1,1,6) -0.713949 (1,2,5) -0.164639 (1,2,7) -0.146682 (1,3,6) 1.62917
(1,2,7): (1,1,7) -0.648127 (1,2,6) 0.146682 (1,2,8) -0.374432 (1,3,7) 1.46208
(1,2,8): (1,1,8) -0.481623 (1,2,7) 0.374432 (1,2,9) -0.380907 (1,3,8) 1.01885
(1,2,9): (1,1,9) -0.321851 (1,2,8) 0.380907 (1,2,10) -0.225174 (1,3,9) 0.631378
(1,2,10): (1,1,10) -0.232047 (1,2,9) 0.225174 (1,3,10) 0.428595
(1,3,1): (1,2,1) -0.195496 (1,3,2) 0.290382 (1,4,1) 0.204469
(1,3,2): (1,2,2) -0.315865 (1,3,1) -0.290382 (1,3,3) 0.596116 (1,4,2) 0.366424
(1,3,3): (1,2,3) -0.580677 (1,3,2) -0.596116 (1,3,4) 0.855573 (1,4,3) 0.772901
(1,3,4): (1,2,4) -0.997554 (1,3,3) -0.855573 (1,3,5) 0.859071 (1,4,4) 1.54861
(1,3,5): (1,2,5) -1.45443 (1,3,4) -0.859071 (1,3,6) 0.337319 (1,4,5) 2.60938
(1,3,6): (1,2,6) -1.62917 (1,3,5) -0.337319 (1,3,7) -0.311770 (1,4,6) 2.94602
(1,3,7): (1,2,7) -1.46208 (1,3,6) 0.311770 (1,3,8) -0.815007 (1,4,7) 2.61676
(1,3,8): (1,2,8) -1.01885 (1,3,7) 0.815007 (1,3,9) -0.767465 (1,4,8) 1.56916
(1,3,9): (1,2,9) -0.631378 (1,3,8) 0.767465 (1,3,10) -0.427560 (1,4,9) 0.823837
(1,3,10): (1,2,10) -0.428595 (1,3,9) 0.427560 (1,4,10) 0.488895
(1,4,1): (1,3,1) -0.204469 (1,4,2) 0.452472 (1,5,1) 6.564391E-02
(1,4,2): (1,3,2) -0.366424 (1,4,1) -0.452472 (1,4,3) 1.00348 (1,5,2) 0.181444
(1,4,3): (1,3,3) -0.772901 (1,4,2) -1.00348 (1,4,4) 1.63187 (1,5,3) 0.596297
(1,4,4): (1,3,4) -1.54861 (1,4,3) -1.63187 (1,4,5) 1.91339 (1,5,4) 1.80757
(1,4,5): (1,3,5) -2.60938 (1,4,4) -1.91339 (1,4,6) 0.667473 (1,5,5) 4.45963
(1,4,6): (1,3,6) -2.94602 (1,4,5) -0.667473 (1,4,7) -0.634590 (1,5,6) 4.88300
(1,4,7): (1,3,7) -2.61676 (1,4,6) 0.634590 (1,4,8) -1.85564 (1,5,7) 4.46150
(1,4,8): (1,3,8) -1.56916 (1,4,7) 1.85564 (1,4,9) -1.51240 (1,5,8) 1.81187
(1,4,9): (1,3,9) -0.823837 (1,4,8) 1.51240 (1,4,10) -0.762308 (1,5,9) 0.608982
(1,4,10): (1,3,10) -0.488895 (1,4,9) 0.762308 (1,5,10) 0.225762
(1,5,1): (1,4,1) -6.564391E-02 (1,5,2) 0.568707 (1,6,1) -0.239670
(1,5,2): (1,4,2) -0.181444 (1,5,1) -0.568707 (1,5,3) 1.42156 (1,6,2) -0.375646
(1,5,3): (1,4,3) -0.596297 (1,5,2) -1.42156 (1,5,4) 2.85439 (1,6,3) -0.488864
(1,5,4): (1,4,4) -1.80757 (1,5,3) -2.85439 (1,5,5) 4.56776 (1,6,4) 0.493608
(1,5,5): (1,4,5) -4.45963 (1,5,4) -4.56776 (1,5,6) 1.07892 (1,6,5) 8.38016
(1,5,6): (1,4,6) -4.88300 (1,5,5) -1.07892 (1,5,7) -1.04408 (1,6,6) 7.46218
(1,5,7): (1,4,7) -4.46150 (1,5,6) 1.04408 (1,5,8) -4.50623 (1,6,7) 8.37222
(1,5,8): (1,4,8) -1.81187 (1,5,7) 4.50623 (1,5,9) -2.72501 (1,6,8) 0.469026
(1,5,9): (1,4,9) -0.608982 (1,5,8) 2.72501 (1,5,10) -1.14746 (1,6,9) -0.551843
(1,5,10): (1,4,10) -0.225762 (1,5,9) 1.14746 (1,6,10) -0.521332
(1,6,1): (1,5,1) 0.239670 (1,6,2) 0.432478 (1,7,1) -0.528152
(1,6,2): (1,5,2) 0.375646 (1,6,1) -0.432478 (1,6,3) 1.30738 (1,7,2) -1.10917
(1,6,3): (1,5,3) 0.488864 (1,6,2) -1.30738 (1,6,4) 3.86454 (1,7,3) -2.90785
(1,6,4): (1,5,4) -0.493608 (1,6,3) -3.86454 (1,6,5) 12.7024 (1,7,4) -8.20303
(1,6,5): (1,5,5) -8.38016 (1,6,4) -12.7024 (1,6,6) 0.210239 (1,7,5) -25.6420
(1,6,6): (1,5,6) -7.46218 (1,6,5) -0.210239 (1,6,7) -0.183012 (1,7,6) -38.6300
(1,6,7): (1,5,7) -8.37222 (1,6,6) 0.183012 (1,6,8) -12.6558 (1,7,7) -25.6585
(1,6,8): (1,5,8) -0.469026 (1,6,7) 12.6558 (1,6,9) -3.77349 (1,7,8) -8.24829
(1,6,9): (1,5,9) 0.551843 (1,6,8) 3.77349 (1,6,10) -1.11681 (1,7,9) -3.03320
(1,6,10): (1,5,10) 0.521332 (1,6,9) 1.11681 (1,7,10) -1.45161
(1,7,1): (1,6,1) 0.528152 (1,7,2) -0.144917 (1,8,1) -0.391995
(1,7,2): (1,6,2) 1.10917 (1,7,1) 0.144917 (1,7,3) -0.466185 (1,8,2) -0.842857
(1,7,3): (1,6,3) 2.90785 (1,7,2) 0.466185 (1,7,4) -1.24576 (1,8,3) -2.25372
(1,7,4): (1,6,4) 8.20303 (1,7,3) 1.24576 (1,7,5) -3.27459 (1,8,4) -6.34571
(1,7,5): (1,6,5) 25.6420 (1,7,4) 3.27459 (1,7,6) -10.3300 (1,8,5) -18.7230
(1,7,6): (1,6,6) 38.6300 (1,7,5) 10.3300 (1,7,7) 10.3442 (1,8,6) -59.3430
(1,7,7): (1,6,7) 25.6585 (1,7,6) -10.3442 (1,7,8) 3.28918 (1,8,7) -18.7346
(1,7,8): (1,6,8) 8.24829 (1,7,7) -3.28918 (1,7,9) 1.25412 (1,8,8) -6.37832
(1,7,9): (1,6,9) 3.03320 (1,7,8) -1.25412 (1,7,10) 0.438126 (1,8,9) -2.34534
(1,7,10): (1,6,10) 1.45161 (1,7,9) -0.438126 (1,8,10) -1.09837
(1,8,1): (1,7,1) 0.391995 (1,8,2) -0.594665 (1,9,1) 6.510542E-02
(1,8,2): (1,7,2) 0.842857 (1,8,1) 0.594665 (1,8,3) -1.87169 (1,9,2) 0.202945
(1,8,3): (1,7,3) 2.25372 (1,8,2) 1.87169 (1,8,4) -5.29525 (1,9,3) 0.781897
(1,8,4): (1,7,4) 6.34571 (1,8,3) 5.29525 (1,8,5) -15.2370 (1,9,4) 3.06261
(1,8,5): (1,7,5) 18.7230 (1,8,4) 15.2370 (1,8,6) -46.4478 (1,9,5) 11.9484
(1,8,6): (1,7,6) 59.3430 (1,8,5) 46.4478 (1,8,7) 46.4533 (1,9,6) 48.4065
(1,8,7): (1,7,7) 18.7346 (1,8,6) -46.4533 (1,8,8) 15.2290 (1,9,7) 11.9496
(1,8,8): (1,7,8) 6.37832 (1,8,7) -15.2290 (1,8,9) 5.24176 (1,9,8) 3.06576
(1,8,9): (1,7,9) 2.34534 (1,8,8) -5.24176 (1,8,10) 1.67679 (1,9,9) 0.793933
(1,8,10): (1,7,10) 1.09837 (1,8,9) -1.67679 (1,9,10) 0.249813
(1,9,1): (1,8,1) -6.510542E-02 (1,9,2) -0.456280 (1,10,1) 0.330527
(1,9,2): (1,8,2) -0.202945 (1,9,1) 0.456280 (1,9,3) -1.28627 (1,10,2) 0.711862
(1,9,3): (1,8,3) -0.781897 (1,9,2) 1.28627 (1,9,4) -2.96061 (1,10,3) 1.89530
(1,9,4): (1,8,4) -3.06261 (1,9,3) 2.96061 (1,9,5) -6.03075 (1,10,4) 5.27731
(1,9,5): (1,8,5) -11.9484 (1,9,4) 6.03075 (1,9,6) -10.6937 (1,10,5) 15.5053
(1,9,6): (1,8,6) -48.4065 (1,9,5) 10.6937 (1,9,7) 10.6984 (1,10,6) 25.8837
(1,9,7): (1,8,7) -11.9496 (1,9,6) -10.6984 (1,9,8) 6.02566 (1,10,7) 15.5137
(1,9,8): (1,8,8) -3.06576 (1,9,7) -6.02566 (1,9,9) 2.91755 (1,10,8) 5.30340
(1,9,9): (1,8,9) -0.793933 (1,9,8) -2.91755 (1,9,10) 1.12772 (1,10,9) 1.97136
(1,9,10): (1,8,10) -0.249813 (1,9,9) -1.12772 (1,10,10) 0.926902
(1,10,1): (1,9,1) -0.330527 (1,10,2) -7.591503E-02 (1,11,1) 0.252646
(1,10,2): (1,9,2) -0.711862 (1,10,1) 7.591503E-02 (1,10,3) -0.109964 (1,11,2) 0.456562
(1,10,3): (1,9,3) -1.89530 (1,10,2) 0.109964 (1,10,4) 0.347087 (1,11,3) 0.882427
(1,10,4): (1,9,4) -5.27731 (1,10,3) -0.347087 (1,10,5) 3.47374 (1,11,4) 1.21818
(1,10,5): (1,9,5) -15.5053 (1,10,4) -3.47374 (1,10,6) -1.70321 (1,11,5) -0.976176
(1,10,6): (1,9,6) -25.8837 (1,10,5) 1.70321 (1,10,7) 1.71497 (1,11,6) 0.683417
(1,10,7): (1,9,7) -15.5137 (1,10,6) -1.71497 (1,10,8) -3.46072 (1,11,7) -0.969180
(1,10,8): (1,9,8) -5.30340 (1,10,7) 3.46072 (1,10,9) -0.339015 (1,11,8) 1.24061
(1,10,9): (1,9,9) -1.97136 (1,10,8) 0.339015 (1,10,10) 9.199041E-02 (1,11,9) 0.944597
(1,10,10): (1,9,10) -0.926902 (1,10,9) -9.199041E-02 (1,11,10) 0.614989
(1,11,1): (1,10,1) -0.252646 (1,11,2) 0.127394 (1,12,1) 6.753559E-02
(1,11,2): (1,10,2) -0.456562 (1,11,1) -0.127394 (1,11,3) 0.313646 (1,12,2) 0.108516
(1,11,3): (1,10,3) -0.882427 (1,11,2) -0.313646 (1,11,4) 0.681116 (1,12,3) 0.146125
(1,11,4): (1,10,4) -1.21818 (1,11,3) -0.681116 (1,11,5) 1.24215 (1,12,4) 4.630028E-03
(1,11,5): (1,10,5) 0.976176 (1,11,4) -1.24215 (1,11,6) -3.676558E-02 (1,12,5) -0.629342
(1,11,6): (1,10,6) -0.683417 (1,11,5) 3.676558E-02 (1,11,7) 5.528062E-02 (1,12,6) -0.438847
(1,11,7): (1,10,7) 0.969180 (1,11,6) -5.528062E-02 (1,11,8) -1.21398 (1,12,7) -0.627801
(1,11,8): (1,10,8) -1.24061 (1,11,7) 1.21398 (1,11,9) -0.633322 (1,12,8) 1.054161E-02
(1,11,9): (1,10,9) -0.944597 (1,11,8) 0.633322 (1,11,10) -0.235415 (1,12,9) 0.163795
(1,11,10): (1,10,10) -0.614989 (1,11,9) 0.235415 (1,12,10) 0.152354
(1,12,1): (1,11,1) -6.753559E-02 (1,12,2) 0.168398 (1,13,1) -5.966952E-02
(1,12,2): (1,11,2) -0.108516 (1,12,1) -0.168398 (1,12,3) 0.351330 (1,13,2) -9.107813E-02
(1,12,3): (1,11,3) -0.146125 (1,12,2) -0.351330 (1,12,4) 0.538883 (1,13,3) -0.176170
(1,12,4): (1,11,4) -4.630028E-03 (1,12,3) -0.538883 (1,12,5) 0.604490 (1,13,4) -0.358343
(1,12,5): (1,11,5) 0.629342 (1,12,4) -0.604490 (1,12,6) 0.152883 (1,13,5) -0.628433
(1,12,6): (1,11,6) 0.438847 (1,12,5) -0.152883 (1,12,7) -0.132817 (1,13,6) -0.660678
(1,12,7): (1,11,7) 0.627801 (1,12,6) 0.132817 (1,12,8) -0.572094 (1,13,7) -0.631349
(1,12,8): (1,11,8) -1.054161E-02 (1,12,7) 0.572094 (1,12,9) -0.479368 (1,13,8) -0.365639
(1,12,9): (1,11,9) -0.163795 (1,12,8) 0.479368 (1,12,10) -0.246866 (1,13,9) -0.191384
(1,12,10): (1,11,10) -0.152354 (1,12,9) 0.246866 (1,13,10) -0.121408
(1,13,1): (1,12,1) 5.966952E-02 (1,13,2) 0.136966 (1,14,1) -9.301083E-02
(1,13,2): (1,12,2) 9.107813E-02 (1,13,1) -0.136966 (1,13,3) 0.266092 (1,14,2) -0.135539
(1,13,3): (1,12,3) 0.176170 (1,13,2) -0.266092 (1,13,4) 0.356392 (1,14,3) -0.225226
(1,13,4): (1,12,4) 0.358343 (1,13,3) -0.356392 (1,13,5) 0.334462 (1,14,4) -0.360511
(1,13,5): (1,12,5) 0.628433 (1,13,4) -0.334462 (1,13,6) 0.120790 (1,14,5) -0.502354
(1,13,6): (1,12,6) 0.660678 (1,13,5) -0.120790 (1,13,7) -0.103632 (1,14,6) -0.546999
(1,13,7): (1,12,7) 0.631349 (1,13,6) 0.103632 (1,13,8) -0.306535 (1,14,7) -0.506547
(1,13,8): (1,12,8) 0.365639 (1,13,7) 0.306535 (1,13,9) -0.304921 (1,14,8) -0.371645
(1,13,9): (1,12,9) 0.191384 (1,13,8) 0.304921 (1,13,10) -0.176852 (1,14,9) -0.249692
(1,13,10): (1,12,10) 0.121408 (1,13,9) 0.176852 (1,14,10) -0.184794
(1,14,1): (1,13,1) 9.301083E-02 (1,14,2) 9.443752E-02 (1,15,1) -6.080973E-02
(1,14,2): (1,13,2) 0.135539 (1,14,1) -9.443752E-02 (1,14,3) 0.176369 (1,15,2) -8.655361E-02
(1,14,3): (1,13,3) 0.225226 (1,14,2) -0.176369 (1,14,4) 0.221112 (1,15,3) -0.137370
(1,14,4): (1,13,4) 0.360511 (1,14,3) -0.221112 (1,14,5) 0.192849 (1,15,4) -0.206236
(1,14,5): (1,13,5) 0.502354 (1,14,4) -0.192849 (1,14,6) 7.632654E-02 (1,15,5) -0.270581
(1,14,6): (1,13,6) 0.546999 (1,14,5) -7.632654E-02 (1,14,7) -6.335173E-02 (1,15,6) -0.294711
(1,14,7): (1,13,7) 0.506547 (1,14,6) 6.335173E-02 (1,14,8) -0.171892 (1,15,7) -0.273341
(1,14,8): (1,13,8) 0.371645 (1,14,7) 0.171892 (1,14,9) -0.183048 (1,15,8) -0.213604
(1,14,9): (1,13,9) 0.249692 (1,14,8) 0.183048 (1,14,10) -0.112000 (1,15,9) -0.153549
(1,14,10): (1,13,10) 0.184794 (1,14,9) 0.112000 (1,15,10) -0.118695
(1,15,1): (1,14,1) 6.080973E-02 (1,15,2) 6.869164E-02
(1,15,2): (1,14,2) 8.655361E-02 (1,15,1) -6.869164E-02 (1,15,3) 0.125533
(1,15,3): (1,14,3) 0.137370 (1,15,2) -0.125533 (1,15,4) 0.152236
(1,15,4): (1,14,4) 0.206236 (1,15,3) -0.152236 (1,15,5) 0.128552
(1,15,5): (1,14,5) 0.270581 (1,15,4) -0.128552 (1,15,6) 5.224758E-02
(1,15,6): (1,14,6) 0.294711 (1,15,5) -5.224758E-02 (1,15,7) -4.202943E-02
(1,15,7): (1,14,7) 0.273341 (1,15,6) 4.202943E-02 (1,15,8) -0.112215
(1,15,8): (1,14,8) 0.213604 (1,15,7) 0.112215 (1,15,9) -0.123011
(1,15,9): (1,14,9) 0.153549 (1,15,8) 0.123011 (1,15,10) -7.716009E-02
(1,15,10): (1,14,10) 0.118695 (1,15,9) 7.716009E-02

 WEL PACKAGE (WEL-1) FLOW RATES   PERIOD      2   STEP       84
 ----------------------------------------------------------------------------------------
   NUMBER   CELLID                    RATE       NAME                                    
 ----------------------------------------------------------------------------------------
     1      (1,8,6)              -200.80212      WEL                                     
 ----------------------------------------------------------------------------------------




 API PACKAGE (MAR) FLOW RATES   PERIOD      2   STEP       84
 -----------------------------------------------
   NUMBER   CELLID                    RATE      
 -----------------------------------------------
     1      (1,6,5)               46.666667     
     2      (1,6,6)               46.666667     
     3      (1,6,7)               46.666667     
     4      (1,10,5)              20.267374     
     5      (1,10,6)              20.267374     
     6      (1,10,7)              20.267374     
 -----------------------------------------------



1
  HEAD IN LAYER   1 AT END OF TIME STEP  84 IN STRESS PERIOD    2
  ---------------------------------------------------------------------------

            1           2           3           4           5           6           7           8           9          10
 ........................................................................................................................
   1   2.8580E-02  3.9593E-02  6.0294E-02  8.6363E-02  0.1092      0.1185      0.1105      8.9898E-02  6.7966E-02  5.4512E-02
   2   3.9570E-02  5.6479E-02  8.9312E-02  0.1327      0.1724      0.1886      0.1742      0.1374      9.9833E-02  7.7538E-02
   3   5.9005E-02  8.7791E-02  0.1465      0.2302      0.3135      0.3461      0.3159      0.2369      0.1620      0.1199    
   4   7.9291E-02  0.1240      0.2222      0.3794      0.5606      0.6234      0.5637      0.3880      0.2424      0.1680    
   5   8.5800E-02  0.1419      0.2802      0.5507      0.9672       1.065      0.9703      0.5596      0.3015      0.1901    
   6   6.2037E-02  0.1048      0.2326      0.5973       1.684       1.702       1.687      0.6038      0.2479      0.1390    
   7   9.5470E-03 -4.9309E-03 -5.1572E-02 -0.1768     -0.5101      -1.599     -0.5088     -0.1741     -4.8037E-02 -4.2058E-03
   8  -2.9615E-02 -8.9258E-02 -0.2781     -0.8228      -2.483      -8.662      -2.483     -0.8232     -0.2837     -0.1141    
   9  -2.3090E-02 -6.8823E-02 -0.1983     -0.5004      -1.135      -2.342      -1.135     -0.5005     -0.2027     -8.8884E-02
  10   9.9304E-03  2.3464E-03 -8.6474E-03  2.5971E-02  0.3612      0.1969      0.3624      2.8381E-02 -5.4245E-03  3.7711E-03
  11   3.5107E-02  4.7785E-02  7.8904E-02  0.1460      0.2670      0.2634      0.2688      0.1506      8.8209E-02  6.4874E-02
  12   4.1832E-02  5.8574E-02  9.3382E-02  0.1465      0.2057      0.2207      0.2077      0.1516      0.1044      7.9988E-02
  13   3.5890E-02  4.9519E-02  7.5928E-02  0.1112      0.1441      0.1560      0.1458      0.1156      8.5479E-02  6.7944E-02
  14   2.6622E-02  3.6032E-02  5.3575E-02  7.5520E-02  9.4624E-02  0.1022      9.5909E-02  7.8883E-02  6.0721E-02  4.9589E-02
  15   2.0557E-02  2.7408E-02  3.9911E-02  5.5051E-02  6.7820E-02  7.3007E-02  6.8834E-02  5.7690E-02  4.5459E-02  3.7778E-02

 HEAD WILL BE SAVED ON UNIT 1043 AT END OF TIME STEP   84, STRESS PERIOD    2


  VOLUME BUDGET FOR ENTIRE MODEL AT END OF TIME STEP   84, STRESS PERIOD   2
  ---------------------------------------------------------------------------------------------------

     CUMULATIVE VOLUME      L**3       RATES FOR THIS TIME STEP      L**3/T          PACKAGE NAME    
     ------------------                 ------------------------                     ----------------

           IN:                                      IN:
           ---                                      ---
              STO-SS =          26.5225                STO-SS =       1.3660E-02     STORAGE                          
              STO-SY =       62465.7990                STO-SY =          28.2048     STORAGE                          
                 WEL =           0.0000                   WEL =           0.0000     WEL-1                            
                 API =      187956.8027                   API =         200.8021     MAR                              
                 CHD =       2.8247E-08                   CHD =           0.0000     CHD_0                            

            TOTAL IN =      250449.1243              TOTAL IN =         229.0206

          OUT:                                     OUT:
          ----                                     ----
              STO-SS =          32.3790                STO-SS =       1.4477E-02     STORAGE                          
              STO-SY =       62459.9426                STO-SY =          28.2040     STORAGE                          
                 WEL =      187956.8026                   WEL =         200.8021     WEL-1                            
                 API =           0.0000                   API =           0.0000     MAR                              
                 CHD =       3.0388E-08                   CHD =           0.0000     CHD_0                            

           TOTAL OUT =      250449.1243             TOTAL OUT =         229.0206

            IN - OUT =       3.5492E-06              IN - OUT =       1.0120E-08

 PERCENT DISCREPANCY =           0.00     PERCENT DISCREPANCY =           0.00




         TIME SUMMARY AT END OF TIME STEP   84 IN STRESS PERIOD    2
                    SECONDS     MINUTES      HOURS       DAYS        YEARS
                    -----------------------------------------------------------
   TIME STEP LENGTH 8.64000E+05  14400.      240.00      10.000     2.73785E-02
 STRESS PERIOD TIME 7.25760E+07 1.20960E+06  20160.      840.00      2.2998    
         TOTAL TIME 7.26624E+07 1.21104E+06  20184.      841.00      2.3025    


end timestep


start timestep kper="2" kstp="85" mode="normal"

 UBDSV1 SAVING           STO-SS ON UNIT   1042 AT TIME STEP     85, STRESS PERIOD      2
 UBDSV1 SAVING           STO-SY ON UNIT   1042 AT TIME STEP     85, STRESS PERIOD      2
 UBDSV1 SAVING     FLOW-JA-FACE ON UNIT   1042 AT TIME STEP     85, STRESS PERIOD      2
 UBDSV06 SAVING       DATA-SPDIS IN MODEL GWF              PACKAGE NPF             CONNECTED TO MODEL GWF              PACKAGE NPF              ON UNIT   1042 AT TIME STEP     85, STRESS PERIOD      2
 UBDSV06 SAVING              WEL IN MODEL GWF              PACKAGE GWF             CONNECTED TO MODEL GWF              PACKAGE WEL-1            ON UNIT   1042 AT TIME STEP     85, STRESS PERIOD      2
 UBDSV06 SAVING              API IN MODEL GWF              PACKAGE GWF             CONNECTED TO MODEL GWF              PACKAGE MAR              ON UNIT   1042 AT TIME STEP     85, STRESS PERIOD      2
 UBDSV06 SAVING              CHD IN MODEL GWF              PACKAGE GWF             CONNECTED TO MODEL GWF              PACKAGE CHD_0            ON UNIT   1042 AT TIME STEP     85, STRESS PERIOD      2

    CALCULATED INTERCELL FLOW FOR PERIOD 2 STEP 85
(1,1,1): (1,1,2) 0.112902 (1,2,1) 0.112026
(1,1,2): (1,1,1) -0.112902 (1,1,3) 0.212281 (1,2,2) 0.171772
(1,1,3): (1,1,2) -0.212281 (1,1,4) 0.267455 (1,2,3) 0.295171
(1,1,4): (1,1,3) -0.267455 (1,1,5) 0.234217 (1,2,4) 0.472004
(1,1,5): (1,1,4) -0.234217 (1,1,6) 9.622866E-02 (1,2,5) 0.646843
(1,1,6): (1,1,5) -9.622866E-02 (1,1,7) -8.207073E-02 (1,2,6) 0.717338
(1,1,7): (1,1,6) 8.207073E-02 (1,1,8) -0.211002 (1,2,7) 0.651464
(1,1,8): (1,1,7) 0.211002 (1,1,9) -0.224358 (1,2,8) 0.484752
(1,1,9): (1,1,8) 0.224358 (1,1,10) -0.137465 (1,2,9) 0.324718
(1,1,10): (1,1,9) 0.137465 (1,2,10) 0.234731
(1,2,1): (1,1,1) -0.112026 (1,2,2) 0.172649 (1,3,1) 0.197658
(1,2,2): (1,1,2) -0.171772 (1,2,1) -0.172649 (1,2,3) 0.335729 (1,3,2) 0.318277
(1,2,3): (1,1,3) -0.295171 (1,2,2) -0.335729 (1,2,4) 0.444240 (1,3,3) 0.583474
(1,2,4): (1,1,4) -0.472004 (1,2,3) -0.444240 (1,2,5) 0.408658 (1,3,4) 1.00072
(1,2,5): (1,1,5) -0.646843 (1,2,4) -0.408658 (1,2,6) 0.166355 (1,3,5) 1.45785
(1,2,6): (1,1,6) -0.717338 (1,2,5) -0.166355 (1,2,7) -0.147589 (1,3,6) 1.63274
(1,2,7): (1,1,7) -0.651464 (1,2,6) 0.147589 (1,2,8) -0.377278 (1,3,7) 1.46565
(1,2,8): (1,1,8) -0.484752 (1,2,7) 0.377278 (1,2,9) -0.384236 (1,3,8) 1.02236
(1,2,9): (1,1,9) -0.324718 (1,2,8) 0.384236 (1,2,10) -0.227366 (1,3,9) 0.634764
(1,2,10): (1,1,10) -0.234731 (1,2,9) 0.227366 (1,3,10) 0.431880
(1,3,1): (1,2,1) -0.197658 (1,3,2) 0.293238 (1,4,1) 0.205123
(1,3,2): (1,2,2) -0.318277 (1,3,1) -0.293238 (1,3,3) 0.600970 (1,4,2) 0.366869
(1,3,3): (1,2,3) -0.583474 (1,3,2) -0.600970 (1,3,4) 0.860934 (1,4,3) 0.772941
(1,3,4): (1,2,4) -1.00072 (1,3,3) -0.860934 (1,3,5) 0.863287 (1,4,4) 1.54813
(1,3,5): (1,2,5) -1.45785 (1,3,4) -0.863287 (1,3,6) 0.339181 (1,4,5) 2.60844
(1,3,6): (1,2,6) -1.63274 (1,3,5) -0.339181 (1,3,7) -0.312667 (1,4,6) 2.94498
(1,3,7): (1,2,7) -1.46565 (1,3,6) 0.312667 (1,3,8) -0.817919 (1,4,7) 2.61589
(1,3,8): (1,2,8) -1.02236 (1,3,7) 0.817919 (1,3,9) -0.770917 (1,4,8) 1.56881
(1,3,9): (1,2,9) -0.634764 (1,3,8) 0.770917 (1,3,10) -0.429852 (1,4,9) 0.824033
(1,3,10): (1,2,10) -0.431880 (1,3,9) 0.429852 (1,4,10) 0.489428
(1,4,1): (1,3,1) -0.205123 (1,4,2) 0.455122 (1,5,1) 6.305791E-02
(1,4,2): (1,3,2) -0.366869 (1,4,1) -0.455122 (1,4,3) 1.00795 (1,5,2) 0.177863
(1,4,3): (1,3,3) -0.772941 (1,4,2) -1.00795 (1,4,4) 1.63675 (1,5,3) 0.591037
(1,4,4): (1,3,4) -1.54813 (1,4,3) -1.63675 (1,4,5) 1.91720 (1,5,4) 1.80051
(1,4,5): (1,3,5) -2.60844 (1,4,4) -1.91720 (1,4,6) 0.669257 (1,5,5) 4.45111
(1,4,6): (1,3,6) -2.94498 (1,4,5) -0.669257 (1,4,7) -0.635328 (1,5,6) 4.87420
(1,4,7): (1,3,7) -2.61589 (1,4,6) 0.635328 (1,4,8) -1.85807 (1,5,7) 4.45287
(1,4,8): (1,3,8) -1.56881 (1,4,7) 1.85807 (1,4,9) -1.51533 (1,5,8) 1.80448
(1,4,9): (1,3,9) -0.824033 (1,4,8) 1.51533 (1,4,10) -0.764269 (1,5,9) 0.602973
(1,4,10): (1,3,10) -0.489428 (1,4,9) 0.764269 (1,5,10) 0.220711
(1,5,1): (1,4,1) -6.305791E-02 (1,5,2) 0.570364 (1,6,1) -0.245717
(1,5,2): (1,4,2) -0.177863 (1,5,1) -0.570364 (1,5,3) 1.42436 (1,6,2) -0.383472
(1,5,3): (1,4,3) -0.591037 (1,5,2) -1.42436 (1,5,4) 2.85755 (1,6,3) -0.499565
(1,5,4): (1,4,4) -1.80051 (1,5,3) -2.85755 (1,5,5) 4.57036 (1,6,4) 0.480208
(1,5,5): (1,4,5) -4.45111 (1,5,4) -4.57036 (1,5,6) 1.08047 (1,6,5) 8.36471
(1,5,6): (1,4,6) -4.87420 (1,5,5) -1.08047 (1,5,7) -1.04468 (1,6,6) 7.44699
(1,5,7): (1,4,7) -4.45287 (1,5,6) 1.04468 (1,5,8) -4.50764 (1,6,7) 8.35644
(1,5,8): (1,4,8) -1.80448 (1,5,7) 4.50764 (1,5,9) -2.72664 (1,6,8) 0.454810
(1,5,9): (1,4,9) -0.602973 (1,5,8) 2.72664 (1,5,10) -1.14848 (1,6,9) -0.564238
(1,5,10): (1,4,10) -0.220711 (1,5,9) 1.14848 (1,6,10) -0.532246
(1,6,1): (1,5,1) 0.245717 (1,6,2) 0.432361 (1,7,1) -0.535834
(1,6,2): (1,5,2) 0.383472 (1,6,1) -0.432361 (1,6,3) 1.30730 (1,7,2) -1.11906
(1,6,3): (1,5,3) 0.499565 (1,6,2) -1.30730 (1,6,4) 3.86495 (1,7,3) -2.92130
(1,6,4): (1,5,4) -0.480208 (1,6,3) -3.86495 (1,6,5) 12.7039 (1,7,4) -8.21980
(1,6,5): (1,5,5) -8.36471 (1,6,4) -12.7039 (1,6,6) 0.211909 (1,7,5) -25.6601
(1,6,6): (1,5,6) -7.44699 (1,6,5) -0.211909 (1,6,7) -0.184053 (1,7,6) -38.6455
(1,6,7): (1,5,7) -8.35644 (1,6,6) 0.184053 (1,6,8) -12.6566 (1,7,7) -25.6771
(1,6,8): (1,5,8) -0.454810 (1,6,7) 12.6566 (1,6,9) -3.77325 (1,7,8) -8.26608
(1,6,9): (1,5,9) 0.564238 (1,6,8) 3.77325 (1,6,10) -1.11635 (1,7,9) -3.04877
(1,6,10): (1,5,10) 0.532246 (1,6,9) 1.11635 (1,7,10) -1.46535
(1,7,1): (1,6,1) 0.535834 (1,7,2) -0.147176 (1,8,1) -0.398426
(1,7,2): (1,6,2) 1.11906 (1,7,1) 0.147176 (1,7,3) -0.469594 (1,8,2) -0.851571
(1,7,3): (1,6,3) 2.92130 (1,7,2) 0.469594 (1,7,4) -1.24788 (1,8,3) -2.26645
(1,7,4): (1,6,4) 8.21980 (1,7,3) 1.24788 (1,7,5) -3.27258 (1,8,4) -6.36262
(1,7,5): (1,6,5) 25.6601 (1,7,4) 3.27258 (1,7,6) -10.3247 (1,8,5) -18.7404
(1,7,6): (1,6,6) 38.6455 (1,7,5) 10.3247 (1,7,7) 10.3393 (1,8,6) -59.3464
(1,7,7): (1,6,7) 25.6771 (1,7,6) -10.3393 (1,7,8) 3.28724 (1,8,7) -18.7524
(1,7,8): (1,6,8) 8.26608 (1,7,7) -3.28724 (1,7,9) 1.25577 (1,8,8) -6.39605
(1,7,9): (1,6,9) 3.04877 (1,7,8) -1.25577 (1,7,10) 0.440175 (1,8,9) -2.35981
(1,7,10): (1,6,10) 1.46535 (1,7,9) -0.440175 (1,8,10) -1.11041
(1,8,1): (1,7,1) 0.398426 (1,8,2) -0.599181 (1,9,1) 6.238934E-02
(1,8,2): (1,7,2) 0.851571 (1,8,1) 0.599181 (1,8,3) -1.87903 (1,9,2) 0.198424
(1,8,3): (1,7,3) 2.26645 (1,8,2) 1.87903 (1,8,4) -5.30105 (1,9,3) 0.773246
(1,8,4): (1,7,4) 6.36262 (1,8,3) 5.30105 (1,8,5) -15.2329 (1,9,4) 3.04617
(1,8,5): (1,7,5) 18.7404 (1,8,4) 15.2329 (1,8,6) -46.4172 (1,9,5) 11.9165
(1,8,6): (1,7,6) 59.3464 (1,8,5) 46.4172 (1,8,7) 46.4227 (1,9,6) 48.3347
(1,8,7): (1,7,7) 18.7524 (1,8,6) -46.4227 (1,8,8) 15.2243 (1,9,7) 11.9176
(1,8,8): (1,7,8) 6.39605 (1,8,7) -15.2243 (1,8,9) 5.24609 (1,9,8) 3.04902
(1,8,9): (1,7,9) 2.35981 (1,8,8) -5.24609 (1,8,10) 1.68113 (1,9,9) 0.784574
(1,8,10): (1,7,10) 1.11041 (1,8,9) -1.68113 (1,9,10) 0.243667
(1,9,1): (1,8,1) -6.238934E-02 (1,9,2) -0.462596 (1,10,1) 0.332265
(1,9,2): (1,8,2) -0.198424 (1,9,1) 0.462596 (1,9,3) -1.29768 (1,10,2) 0.713230
(1,9,3): (1,8,3) -0.773246 (1,9,2) 1.29768 (1,9,4) -2.97380 (1,10,3) 1.89490
(1,9,4): (1,8,4) -3.04617 (1,9,3) 2.97380 (1,9,5) -6.03964 (1,10,4) 5.27096
(1,9,5): (1,8,5) -11.9165 (1,9,4) 6.03964 (1,9,6) -10.6882 (1,10,5) 15.4805
(1,9,6): (1,8,6) -48.3347 (1,9,5) 10.6882 (1,9,7) 10.6927 (1,10,6) 25.8455
(1,9,7): (1,8,7) -11.9176 (1,9,6) -10.6927 (1,9,8) 6.03390 (1,10,7) 15.4890
(1,9,8): (1,8,8) -3.04902 (1,9,7) -6.03390 (1,9,9) 2.92888 (1,10,8) 5.29732
(1,9,9): (1,8,9) -0.784574 (1,9,8) -2.92888 (1,9,10) 1.13523 (1,10,9) 1.97145
(1,9,10): (1,8,10) -0.243667 (1,9,9) -1.13523 (1,10,10) 0.928885
(1,10,1): (1,9,1) -0.332265 (1,10,2) -8.258157E-02 (1,11,1) 0.257391
(1,10,2): (1,9,2) -0.713230 (1,10,1) 8.258157E-02 (1,10,3) -0.122998 (1,11,2) 0.462796
(1,10,3): (1,9,3) -1.89490 (1,10,2) 0.122998 (1,10,4) 0.328515 (1,11,3) 0.891419
(1,10,4): (1,9,4) -5.27096 (1,10,3) -0.328515 (1,10,5) 3.44832 (1,11,4) 1.23153
(1,10,5): (1,9,5) -15.4805 (1,10,4) -3.44832 (1,10,6) -1.70832 (1,11,5) -0.952514
(1,10,6): (1,9,6) -25.8455 (1,10,5) 1.70832 (1,10,7) 1.72004 (1,11,6) 0.707141
(1,10,7): (1,9,7) -15.4890 (1,10,6) -1.72004 (1,10,8) -3.43577 (1,11,7) -0.945294
(1,10,8): (1,9,8) -5.29732 (1,10,7) 3.43577 (1,10,9) -0.322038 (1,11,8) 1.25456
(1,10,9): (1,9,9) -1.97145 (1,10,8) 0.322038 (1,10,10) 0.101303 (1,11,9) 0.954868
(1,10,10): (1,9,10) -0.928885 (1,10,9) -0.101303 (1,11,10) 0.623619
(1,11,1): (1,10,1) -0.257391 (1,11,2) 0.122199 (1,12,1) 7.251410E-02
(1,11,2): (1,10,2) -0.462796 (1,11,1) -0.122199 (1,11,3) 0.303302 (1,12,2) 0.115760
(1,11,3): (1,10,3) -0.891419 (1,11,2) -0.303302 (1,11,4) 0.666792 (1,12,3) 0.157737
(1,11,4): (1,10,4) -1.23153 (1,11,3) -0.666792 (1,11,5) 1.22758 (1,12,4) 2.225670E-02
(1,11,5): (1,10,5) 0.952514 (1,11,4) -1.22758 (1,11,6) -4.166717E-02 (1,12,5) -0.604958
(1,11,6): (1,10,6) -0.707141 (1,11,5) 4.166717E-02 (1,11,7) 6.037379E-02 (1,12,6) -0.412485
(1,11,7): (1,10,7) 0.945294 (1,11,6) -6.037379E-02 (1,11,8) -1.19951 (1,12,7) -0.603221
(1,11,8): (1,10,8) -1.25456 (1,11,7) 1.19951 (1,11,9) -0.619919 (1,12,8) 2.873392E-02
(1,11,9): (1,10,9) -0.954868 (1,11,8) 0.619919 (1,11,10) -0.227692 (1,12,9) 0.176747
(1,11,10): (1,10,10) -0.623619 (1,11,9) 0.227692 (1,12,10) 0.162376
(1,12,1): (1,11,1) -7.251410E-02 (1,12,2) 0.165466 (1,13,1) -5.645071E-02
(1,12,2): (1,11,2) -0.115760 (1,12,1) -0.165466 (1,12,3) 0.345356 (1,13,2) -8.592568E-02
(1,12,3): (1,11,3) -0.157737 (1,12,2) -0.345356 (1,12,4) 0.530638 (1,13,3) -0.167295
(1,12,4): (1,11,4) -2.225670E-02 (1,12,3) -0.530638 (1,12,5) 0.596659 (1,13,4) -0.344567
(1,12,5): (1,11,5) 0.604958 (1,12,4) -0.596659 (1,12,6) 0.149992 (1,13,5) -0.610033
(1,12,6): (1,11,6) 0.412485 (1,12,5) -0.149992 (1,12,7) -0.129541 (1,13,6) -0.640552
(1,12,7): (1,11,7) 0.603221 (1,12,6) 0.129541 (1,12,8) -0.563987 (1,13,7) -0.612857
(1,12,8): (1,11,8) -2.873392E-02 (1,12,7) 0.563987 (1,12,9) -0.471267 (1,13,8) -0.351546
(1,12,9): (1,11,9) -0.176747 (1,12,8) 0.471267 (1,12,10) -0.242071 (1,13,9) -0.181642
(1,12,10): (1,11,10) -0.162376 (1,12,9) 0.242071 (1,13,10) -0.114251
(1,13,1): (1,12,1) 5.645071E-02 (1,13,2) 0.135968 (1,14,1) -9.175661E-02
(1,13,2): (1,12,2) 8.592568E-02 (1,13,1) -0.135968 (1,13,3) 0.263845 (1,14,2) -0.133116
(1,13,3): (1,12,3) 0.167295 (1,13,2) -0.263845 (1,13,4) 0.353047 (1,14,3) -0.220537
(1,13,4): (1,12,4) 0.344567 (1,13,3) -0.353047 (1,13,5) 0.331228 (1,14,4) -0.352865
(1,13,5): (1,12,5) 0.610033 (1,13,4) -0.331228 (1,13,6) 0.119612 (1,14,5) -0.492038
(1,13,6): (1,12,6) 0.640552 (1,13,5) -0.119612 (1,13,7) -0.101978 (1,14,6) -0.535641
(1,13,7): (1,12,7) 0.612857 (1,13,6) 0.101978 (1,13,8) -0.302798 (1,14,7) -0.496229
(1,13,8): (1,12,8) 0.351546 (1,13,7) 0.302798 (1,13,9) -0.301166 (1,14,8) -0.363922
(1,13,9): (1,12,9) 0.181642 (1,13,8) 0.301166 (1,13,10) -0.174640 (1,14,9) -0.244665
(1,13,10): (1,12,10) 0.114251 (1,13,9) 0.174640 (1,14,10) -0.181401
(1,14,1): (1,13,1) 9.175661E-02 (1,14,2) 9.460786E-02 (1,15,1) -6.060340E-02
(1,14,2): (1,13,2) 0.133116 (1,14,1) -9.460786E-02 (1,14,3) 0.176386 (1,15,2) -8.585787E-02
(1,14,3): (1,13,3) 0.220537 (1,14,2) -0.176386 (1,14,4) 0.220719 (1,15,3) -0.135713
(1,14,4): (1,13,4) 0.352865 (1,14,3) -0.220719 (1,14,5) 0.192270 (1,15,4) -0.203317
(1,14,5): (1,13,5) 0.492038 (1,14,4) -0.192270 (1,14,6) 7.618359E-02 (1,15,5) -0.266531
(1,14,6): (1,13,6) 0.535641 (1,14,5) -7.618359E-02 (1,14,7) -6.272927E-02 (1,15,6) -0.290218
(1,14,7): (1,13,7) 0.496229 (1,14,6) 6.272927E-02 (1,14,8) -0.170738 (1,15,7) -0.269315
(1,14,8): (1,13,8) 0.363922 (1,14,7) 0.170738 (1,14,9) -0.181982 (1,15,8) -0.210708
(1,14,9): (1,13,9) 0.244665 (1,14,8) 0.181982 (1,14,10) -0.111419 (1,15,9) -0.151838
(1,14,10): (1,13,10) 0.181401 (1,14,9) 0.111419 (1,15,10) -0.117706
(1,15,1): (1,14,1) 6.060340E-02 (1,15,2) 6.935120E-02
(1,15,2): (1,14,2) 8.585787E-02 (1,15,1) -6.935120E-02 (1,15,3) 0.126511
(1,15,3): (1,14,3) 0.135713 (1,15,2) -0.126511 (1,15,4) 0.153104
(1,15,4): (1,14,4) 0.203317 (1,15,3) -0.153104 (1,15,5) 0.129101
(1,15,5): (1,14,5) 0.266531 (1,15,4) -0.129101 (1,15,6) 5.254585E-02
(1,15,6): (1,14,6) 0.290218 (1,15,5) -5.254585E-02 (1,15,7) -4.187239E-02
(1,15,7): (1,14,7) 0.269315 (1,15,6) 4.187239E-02 (1,15,8) -0.112187
(1,15,8): (1,14,8) 0.210708 (1,15,7) 0.112187 (1,15,9) -0.123129
(1,15,9): (1,14,9) 0.151838 (1,15,8) 0.123129 (1,15,10) -7.730113E-02
(1,15,10): (1,14,10) 0.117706 (1,15,9) 7.730113E-02

 WEL PACKAGE (WEL-1) FLOW RATES   PERIOD      2   STEP       85
 ----------------------------------------------------------------------------------------
   NUMBER   CELLID                    RATE       NAME                                    
 ----------------------------------------------------------------------------------------
     1      (1,8,6)              -200.66919      WEL                                     
 ----------------------------------------------------------------------------------------




 API PACKAGE (MAR) FLOW RATES   PERIOD      2   STEP       85
 -----------------------------------------------
   NUMBER   CELLID                    RATE      
 -----------------------------------------------
     1      (1,6,5)               46.666667     
     2      (1,6,6)               46.666667     
     3      (1,6,7)               46.666667     
     4      (1,10,5)              20.223064     
     5      (1,10,6)              20.223064     
     6      (1,10,7)              20.223064     
 -----------------------------------------------



1
  HEAD IN LAYER   1 AT END OF TIME STEP  85 IN STRESS PERIOD    2
  ---------------------------------------------------------------------------

            1           2           3           4           5           6           7           8           9          10
 ........................................................................................................................
   1   2.9704E-02  4.0948E-02  6.2045E-02  8.8556E-02  0.1117      0.1212      0.1131      9.2253E-02  7.0023E-02  5.6372E-02
   2   4.0861E-02  5.8026E-02  9.1295E-02  0.1351      0.1753      0.1916      0.1771      0.1401      0.1022      7.9659E-02
   3   6.0508E-02  8.9571E-02  0.1488      0.2329      0.3166      0.3494      0.3192      0.2399      0.1646      0.1223    
   4   8.0856E-02  0.1258      0.2244      0.3820      0.5635      0.6265      0.5667      0.3909      0.2450      0.1704    
   5   8.7107E-02  0.1433      0.2819      0.5527      0.9693       1.067      0.9725      0.5617      0.3036      0.1921    
   6   6.2747E-02  0.1055      0.2333      0.5980       1.685       1.703       1.688      0.6046      0.2488      0.1399    
   7   9.4982E-03 -5.2054E-03 -5.2189E-02 -0.1776     -0.5108      -1.599     -0.5094     -0.1749     -4.8670E-02 -4.6318E-03
   8  -3.0307E-02 -9.0407E-02 -0.2800     -0.8254      -2.486      -8.663      -2.485     -0.8258     -0.2858     -0.1157    
   9  -2.4053E-02 -7.0424E-02 -0.2011     -0.5046      -1.141      -2.347      -1.140     -0.5047     -0.2057     -9.1133E-02
  10   9.1435E-03  8.9289E-04 -1.1406E-02  2.1376E-02  0.3544      0.1894      0.3555      2.3738E-02 -8.3892E-03  1.7393E-03
  11   3.4793E-02  4.6956E-02  7.7054E-02  0.1428      0.2624      0.2584      0.2642      0.1474      8.6281E-02  6.3706E-02
  12   4.2014E-02  5.8465E-02  9.2683E-02  0.1450      0.2035      0.2181      0.2055      0.1502      0.1038      7.9815E-02
  13   3.6393E-02  4.9922E-02  7.6107E-02  0.1110      0.1437      0.1555      0.1454      0.1156      8.5796E-02  6.8481E-02
  14   2.7251E-02  3.6677E-02  5.4220E-02  7.6125E-02  9.5171E-02  0.1027      9.6503E-02  7.9592E-02  6.1538E-02  5.0464E-02
  15   2.1207E-02  2.8122E-02  4.0722E-02  5.5947E-02  6.8769E-02  7.3985E-02  6.9829E-02  5.8688E-02  4.6447E-02  3.8753E-02

 HEAD WILL BE SAVED ON UNIT 1043 AT END OF TIME STEP   85, STRESS PERIOD    2


  VOLUME BUDGET FOR ENTIRE MODEL AT END OF TIME STEP   85, STRESS PERIOD   2
  ---------------------------------------------------------------------------------------------------

     CUMULATIVE VOLUME      L**3       RATES FOR THIS TIME STEP      L**3/T          PACKAGE NAME    
     ------------------                 ------------------------                     ----------------

           IN:                                      IN:
           ---                                      ---
              STO-SS =          26.6580                STO-SS =       1.3545E-02     STORAGE                          
              STO-SY =       62745.4445                STO-SY =          27.9645     STORAGE                          
                 WEL =           0.0000                   WEL =           0.0000     WEL-1                            
                 API =      189963.4946                   API =         200.6692     MAR                              
                 CHD =       2.8247E-08                   CHD =           0.0000     CHD_0                            

            TOTAL IN =      252735.5970              TOTAL IN =         228.6473

          OUT:                                     OUT:
          ----                                     ----
              STO-SS =          32.5226                STO-SS =       1.4355E-02     STORAGE                          
              STO-SY =       62739.5799                STO-SY =          27.9637     STORAGE                          
                 WEL =      189963.4945                   WEL =         200.6692     WEL-1                            
                 API =           0.0000                   API =           0.0000     MAR                              
                 CHD =       3.0388E-08                   CHD =           0.0000     CHD_0                            

           TOTAL OUT =      252735.5970             TOTAL OUT =         228.6473

            IN - OUT =       3.6496E-06              IN - OUT =       1.0036E-08

 PERCENT DISCREPANCY =           0.00     PERCENT DISCREPANCY =           0.00




         TIME SUMMARY AT END OF TIME STEP   85 IN STRESS PERIOD    2
                    SECONDS     MINUTES      HOURS       DAYS        YEARS
                    -----------------------------------------------------------
   TIME STEP LENGTH 8.64000E+05  14400.      240.00      10.000     2.73785E-02
 STRESS PERIOD TIME 7.34400E+07 1.22400E+06  20400.      850.00      2.3272    
         TOTAL TIME 7.35264E+07 1.22544E+06  20424.      851.00      2.3299    


end timestep


start timestep kper="2" kstp="86" mode="normal"

 UBDSV1 SAVING           STO-SS ON UNIT   1042 AT TIME STEP     86, STRESS PERIOD      2
 UBDSV1 SAVING           STO-SY ON UNIT   1042 AT TIME STEP     86, STRESS PERIOD      2
 UBDSV1 SAVING     FLOW-JA-FACE ON UNIT   1042 AT TIME STEP     86, STRESS PERIOD      2
 UBDSV06 SAVING       DATA-SPDIS IN MODEL GWF              PACKAGE NPF             CONNECTED TO MODEL GWF              PACKAGE NPF              ON UNIT   1042 AT TIME STEP     86, STRESS PERIOD      2
 UBDSV06 SAVING              WEL IN MODEL GWF              PACKAGE GWF             CONNECTED TO MODEL GWF              PACKAGE WEL-1            ON UNIT   1042 AT TIME STEP     86, STRESS PERIOD      2
 UBDSV06 SAVING              API IN MODEL GWF              PACKAGE GWF             CONNECTED TO MODEL GWF              PACKAGE MAR              ON UNIT   1042 AT TIME STEP     86, STRESS PERIOD      2
 UBDSV06 SAVING              CHD IN MODEL GWF              PACKAGE GWF             CONNECTED TO MODEL GWF              PACKAGE CHD_0            ON UNIT   1042 AT TIME STEP     86, STRESS PERIOD      2

    CALCULATED INTERCELL FLOW FOR PERIOD 2 STEP 86
(1,1,1): (1,1,2) 0.115217 (1,2,1) 0.113666
(1,1,2): (1,1,1) -0.115217 (1,1,3) 0.216262 (1,2,2) 0.173664
(1,1,3): (1,1,2) -0.216262 (1,1,4) 0.271923 (1,2,3) 0.297475
(1,1,4): (1,1,3) -0.271923 (1,1,5) 0.237779 (1,2,4) 0.474740
(1,1,5): (1,1,4) -0.237779 (1,1,6) 9.777153E-02 (1,2,5) 0.649909
(1,1,6): (1,1,5) -9.777153E-02 (1,1,7) -8.289872E-02 (1,2,6) 0.720560
(1,1,7): (1,1,6) 8.289872E-02 (1,1,8) -0.213584 (1,2,7) 0.654642
(1,1,8): (1,1,7) 0.213584 (1,1,9) -0.227365 (1,2,8) 0.487743
(1,1,9): (1,1,8) 0.227365 (1,1,10) -0.139438 (1,2,9) 0.327473
(1,1,10): (1,1,9) 0.139438 (1,2,10) 0.237321
(1,2,1): (1,1,1) -0.113666 (1,2,2) 0.175216 (1,3,1) 0.199734
(1,2,2): (1,1,2) -0.173664 (1,2,1) -0.175216 (1,2,3) 0.340125 (1,3,2) 0.320577
(1,2,3): (1,1,3) -0.297475 (1,2,2) -0.340125 (1,2,4) 0.449145 (1,3,3) 0.586115
(1,2,4): (1,1,4) -0.474740 (1,2,3) -0.449145 (1,2,5) 0.412550 (1,3,4) 1.00368
(1,2,5): (1,1,5) -0.649909 (1,2,4) -0.412550 (1,2,6) 0.168053 (1,3,5) 1.46104
(1,2,6): (1,1,6) -0.720560 (1,2,5) -0.168053 (1,2,7) -0.148459 (1,3,6) 1.63606
(1,2,7): (1,1,7) -0.654642 (1,2,6) 0.148459 (1,2,8) -0.380046 (1,3,7) 1.46899
(1,2,8): (1,1,8) -0.487743 (1,2,7) 0.380046 (1,2,9) -0.387480 (1,3,8) 1.02566
(1,2,9): (1,1,9) -0.327473 (1,2,8) 0.387480 (1,2,10) -0.229504 (1,3,9) 0.637968
(1,2,10): (1,1,10) -0.237321 (1,2,9) 0.229504 (1,3,10) 0.435003
(1,3,1): (1,2,1) -0.199734 (1,3,2) 0.296030 (1,4,1) 0.205681
(1,3,2): (1,2,2) -0.320577 (1,3,1) -0.296030 (1,3,3) 0.605713 (1,4,2) 0.367203
(1,3,3): (1,2,3) -0.586115 (1,3,2) -0.605713 (1,3,4) 0.866169 (1,4,3) 0.772848
(1,3,4): (1,2,4) -1.00368 (1,3,3) -0.866169 (1,3,5) 0.867406 (1,4,4) 1.54750
(1,3,5): (1,2,5) -1.46104 (1,3,4) -0.867406 (1,3,6) 0.341011 (1,4,5) 2.60734
(1,3,6): (1,2,6) -1.63606 (1,3,5) -0.341011 (1,3,7) -0.313517 (1,4,6) 2.94379
(1,3,7): (1,2,7) -1.46899 (1,3,6) 0.313517 (1,3,8) -0.820728 (1,4,7) 2.61487
(1,3,8): (1,2,8) -1.02566 (1,3,7) 0.820728 (1,3,9) -0.774253 (1,4,8) 1.56830
(1,3,9): (1,2,9) -0.637968 (1,3,8) 0.774253 (1,3,10) -0.432068 (1,4,9) 0.824069
(1,3,10): (1,2,10) -0.435003 (1,3,9) 0.432068 (1,4,10) 0.489804
(1,4,1): (1,3,1) -0.205681 (1,4,2) 0.457693 (1,5,1) 6.041209E-02
(1,4,2): (1,3,2) -0.367203 (1,4,1) -0.457693 (1,4,3) 1.01228 (1,5,2) 0.174238
(1,4,3): (1,3,3) -0.772848 (1,4,2) -1.01228 (1,4,4) 1.64148 (1,5,3) 0.585766
(1,4,4): (1,3,4) -1.54750 (1,4,3) -1.64148 (1,4,5) 1.92090 (1,5,4) 1.79348
(1,4,5): (1,3,5) -2.60734 (1,4,4) -1.92090 (1,4,6) 0.671003 (1,5,5) 4.44266
(1,4,6): (1,3,6) -2.94379 (1,4,5) -0.671003 (1,4,7) -0.636022 (1,5,6) 4.86547
(1,4,7): (1,3,7) -2.61487 (1,4,6) 0.636022 (1,4,8) -1.86040 (1,5,7) 4.44431
(1,4,8): (1,3,8) -1.56830 (1,4,7) 1.86040 (1,4,9) -1.51815 (1,5,8) 1.79710
(1,4,9): (1,3,9) -0.824069 (1,4,8) 1.51815 (1,4,10) -0.766150 (1,5,9) 0.596935
(1,4,10): (1,3,10) -0.489804 (1,4,9) 0.766150 (1,5,10) 0.215599
(1,5,1): (1,4,1) -6.041209E-02 (1,5,2) 0.571958 (1,6,1) -0.251762
(1,5,2): (1,4,2) -0.174238 (1,5,1) -0.571958 (1,5,3) 1.42706 (1,6,2) -0.391246
(1,5,3): (1,4,3) -0.585766 (1,5,2) -1.42706 (1,5,4) 2.86062 (1,6,3) -0.510127
(1,5,4): (1,4,4) -1.79348 (1,5,3) -2.86062 (1,5,5) 4.57288 (1,6,4) 0.467041
(1,5,5): (1,4,5) -4.44266 (1,5,4) -4.57288 (1,5,6) 1.08198 (1,6,5) 8.34956
(1,5,6): (1,4,6) -4.86547 (1,5,5) -1.08198 (1,5,7) -1.04525 (1,6,6) 7.43210
(1,5,7): (1,4,7) -4.44431 (1,5,6) 1.04525 (1,5,8) -4.50899 (1,6,7) 8.34096
(1,5,8): (1,4,8) -1.79710 (1,5,7) 4.50899 (1,5,9) -2.72820 (1,6,8) 0.440821
(1,5,9): (1,4,9) -0.596935 (1,5,8) 2.72820 (1,5,10) -1.14946 (1,6,9) -0.576494
(1,5,10): (1,4,10) -0.215599 (1,5,9) 1.14946 (1,6,10) -0.543084
(1,6,1): (1,5,1) 0.251762 (1,6,2) 0.432231 (1,7,1) -0.543478
(1,6,2): (1,5,2) 0.391246 (1,6,1) -0.432231 (1,6,3) 1.30720 (1,7,2) -1.12885
(1,6,3): (1,5,3) 0.510127 (1,6,2) -1.30720 (1,6,4) 3.86536 (1,7,3) -2.93455
(1,6,4): (1,5,4) -0.467041 (1,6,3) -3.86536 (1,6,5) 12.7053 (1,7,4) -8.23624
(1,6,5): (1,5,5) -8.34956 (1,6,4) -12.7053 (1,6,6) 0.213547 (1,7,5) -25.6778
(1,6,6): (1,5,6) -7.43210 (1,6,5) -0.213547 (1,6,7) -0.185066 (1,7,6) -38.6607
(1,6,7): (1,5,7) -8.34096 (1,6,6) 0.185066 (1,6,8) -12.6573 (1,7,7) -25.6953
(1,6,8): (1,5,8) -0.440821 (1,6,7) 12.6573 (1,6,9) -3.77303 (1,7,8) -8.28355
(1,6,9): (1,5,9) 0.576494 (1,6,8) 3.77303 (1,6,10) -1.11590 (1,7,9) -3.06412
(1,6,10): (1,5,10) 0.543084 (1,6,9) 1.11590 (1,7,10) -1.47894
(1,7,1): (1,6,1) 0.543478 (1,7,2) -0.149383 (1,8,1) -0.404845
(1,7,2): (1,6,2) 1.12885 (1,7,1) 0.149383 (1,7,3) -0.472906 (1,8,2) -0.860218
(1,7,3): (1,6,3) 2.93455 (1,7,2) 0.472906 (1,7,4) -1.24990 (1,8,3) -2.27901
(1,7,4): (1,6,4) 8.23624 (1,7,3) 1.24990 (1,7,5) -3.27059 (1,8,4) -6.37923
(1,7,5): (1,6,5) 25.6778 (1,7,4) 3.27059 (1,7,6) -10.3196 (1,8,5) -18.7575
(1,7,6): (1,6,6) 38.6607 (1,7,5) 10.3196 (1,7,7) 10.3344 (1,8,6) -59.3497
(1,7,7): (1,6,7) 25.6953 (1,7,6) -10.3344 (1,7,8) 3.28529 (1,8,7) -18.7698
(1,7,8): (1,6,8) 8.28355 (1,7,7) -3.28529 (1,7,9) 1.25732 (1,8,8) -6.41349
(1,7,9): (1,6,9) 3.06412 (1,7,8) -1.25732 (1,7,10) 0.442136 (1,8,9) -2.37411
(1,7,10): (1,6,10) 1.47894 (1,7,9) -0.442136 (1,8,10) -1.12234
(1,8,1): (1,7,1) 0.404845 (1,8,2) -0.603591 (1,9,1) 5.962328E-02
(1,8,2): (1,7,2) 0.860218 (1,8,1) 0.603591 (1,8,3) -1.88616 (1,9,2) 0.193879
(1,8,3): (1,7,3) 2.27901 (1,8,2) 1.88616 (1,8,4) -5.30663 (1,9,3) 0.764646
(1,8,4): (1,7,4) 6.37923 (1,8,3) 5.30663 (1,8,5) -15.2287 (1,9,4) 3.02994
(1,8,5): (1,7,5) 18.7575 (1,8,4) 15.2287 (1,8,6) -46.3874 (1,9,5) 11.8851
(1,8,6): (1,7,6) 59.3497 (1,8,5) 46.3874 (1,8,7) 46.3928 (1,9,6) 48.2644
(1,8,7): (1,7,7) 18.7698 (1,8,6) -46.3928 (1,8,8) 15.2197 (1,9,7) 11.8861
(1,8,8): (1,7,8) 6.41349 (1,8,7) -15.2197 (1,8,9) 5.25021 (1,9,8) 3.03250
(1,8,9): (1,7,9) 2.37411 (1,8,8) -5.25021 (1,8,10) 1.68530 (1,9,9) 0.775250
(1,8,10): (1,7,10) 1.12234 (1,8,9) -1.68530 (1,9,10) 0.237483
(1,9,1): (1,8,1) -5.962328E-02 (1,9,2) -0.468779 (1,10,1) 0.333914
(1,9,2): (1,8,2) -0.193879 (1,9,1) 0.468779 (1,9,3) -1.30882 (1,10,2) 0.714486
(1,9,3): (1,8,3) -0.764646 (1,9,2) 1.30882 (1,9,4) -2.98663 (1,10,3) 1.89438
(1,9,4): (1,8,4) -3.02994 (1,9,3) 2.98663 (1,9,5) -6.04824 (1,10,4) 5.26457
(1,9,5): (1,8,5) -11.8851 (1,9,4) 6.04824 (1,9,6) -10.6828 (1,10,5) 15.4560
(1,9,6): (1,8,6) -48.2644 (1,9,5) 10.6828 (1,9,7) 10.6872 (1,10,6) 25.8080
(1,9,7): (1,8,7) -11.8861 (1,9,6) -10.6872 (1,9,8) 6.04182 (1,10,7) 15.4646
(1,9,8): (1,8,8) -3.03250 (1,9,7) -6.04182 (1,9,9) 2.93983 (1,10,8) 5.29120
(1,9,9): (1,8,9) -0.775250 (1,9,8) -2.93983 (1,9,10) 1.14249 (1,10,9) 1.97140
(1,9,10): (1,8,10) -0.237483 (1,9,9) -1.14249 (1,10,10) 0.930708
(1,10,1): (1,9,1) -0.333914 (1,10,2) -8.913868E-02 (1,11,1) 0.262070
(1,10,2): (1,9,2) -0.714486 (1,10,1) 8.913868E-02 (1,10,3) -0.135765 (1,11,2) 0.468898
(1,10,3): (1,9,3) -1.89438 (1,10,2) 0.135765 (1,10,4) 0.310400 (1,11,3) 0.900153
(1,10,4): (1,9,4) -5.26457 (1,10,3) -0.310400 (1,10,5) 3.42355 (1,11,4) 1.24445
(1,10,5): (1,9,5) -15.4560 (1,10,4) -3.42355 (1,10,6) -1.71327 (1,11,5) -0.929592
(1,10,6): (1,9,6) -25.8080 (1,10,5) 1.71327 (1,10,7) 1.72495 (1,11,6) 0.730103
(1,10,7): (1,9,7) -15.4646 (1,10,6) -1.72495 (1,10,8) -3.41149 (1,11,7) -0.922149
(1,10,8): (1,9,8) -5.29120 (1,10,7) 3.41149 (1,10,9) -0.305540 (1,11,8) 1.26807
(1,10,9): (1,9,9) -1.97140 (1,10,8) 0.305540 (1,10,10) 0.110359 (1,11,9) 0.964864
(1,10,10): (1,9,10) -0.930708 (1,10,9) -0.110359 (1,11,10) 0.632063
(1,11,1): (1,10,1) -0.262070 (1,11,2) 0.117049 (1,12,1) 7.750276E-02
(1,11,2): (1,10,2) -0.468898 (1,11,1) -0.117049 (1,11,3) 0.293103 (1,12,2) 0.122951
(1,11,3): (1,10,3) -0.900153 (1,11,2) -0.293103 (1,11,4) 0.652747 (1,12,3) 0.169166
(1,11,4): (1,10,4) -1.24445 (1,11,3) -0.652747 (1,11,5) 1.21335 (1,12,4) 3.950792E-02
(1,11,5): (1,10,5) 0.929592 (1,11,4) -1.21335 (1,11,6) -4.645322E-02 (1,12,5) -0.581168
(1,11,6): (1,10,6) -0.730103 (1,11,5) 4.645322E-02 (1,11,7) 6.533490E-02 (1,12,6) -0.386783
(1,11,7): (1,10,7) 0.922149 (1,11,6) -6.533490E-02 (1,11,8) -1.18540 (1,12,7) -0.579229
(1,11,8): (1,10,8) -1.26807 (1,11,7) 1.18540 (1,11,9) -0.606831 (1,12,8) 4.655927E-02
(1,11,9): (1,10,9) -0.964864 (1,11,8) 0.606831 (1,11,10) -0.220136 (1,12,9) 0.189518
(1,11,10): (1,10,10) -0.632063 (1,11,9) 0.220136 (1,12,10) 0.172326
(1,12,1): (1,11,1) -7.750276E-02 (1,12,2) 0.162515 (1,13,1) -5.314903E-02
(1,12,2): (1,11,2) -0.122951 (1,12,1) -0.162515 (1,12,3) 0.339394 (1,13,2) -8.072018E-02
(1,12,3): (1,11,3) -0.169166 (1,12,2) -0.339394 (1,12,4) 0.522476 (1,13,3) -0.158440
(1,12,4): (1,11,4) -3.950792E-02 (1,12,3) -0.522476 (1,12,5) 0.588953 (1,13,4) -0.330928
(1,12,5): (1,11,5) 0.581168 (1,12,4) -0.588953 (1,12,6) 0.147152 (1,13,5) -0.591894
(1,12,6): (1,11,6) 0.386783 (1,12,5) -0.147152 (1,12,7) -0.126326 (1,13,6) -0.620733
(1,12,7): (1,11,7) 0.579229 (1,12,6) 0.126326 (1,12,8) -0.556027 (1,13,7) -0.594619
(1,12,8): (1,11,8) -4.655927E-02 (1,12,7) 0.556027 (1,12,9) -0.463290 (1,13,8) -0.337573
(1,12,9): (1,11,9) -0.189518 (1,12,8) 0.463290 (1,12,10) -0.237337 (1,13,9) -0.171894
(1,12,10): (1,11,10) -0.172326 (1,12,9) 0.237337 (1,13,10) -0.107016
(1,13,1): (1,12,1) 5.314903E-02 (1,13,2) 0.134922 (1,14,1) -9.040037E-02
(1,13,2): (1,12,2) 8.072018E-02 (1,13,1) -0.134922 (1,13,3) 0.261536 (1,14,2) -0.130591
(1,13,3): (1,12,3) 0.158440 (1,13,2) -0.261536 (1,13,4) 0.349669 (1,14,3) -0.215761
(1,13,4): (1,12,4) 0.330928 (1,13,3) -0.349669 (1,13,5) 0.327994 (1,14,4) -0.345170
(1,13,5): (1,12,5) 0.591894 (1,13,4) -0.327994 (1,13,6) 0.118440 (1,14,5) -0.481720
(1,13,6): (1,12,6) 0.620733 (1,13,5) -0.118440 (1,13,7) -0.100332 (1,14,6) -0.524299
(1,13,7): (1,12,7) 0.594619 (1,13,6) 0.100332 (1,13,8) -0.299077 (1,14,7) -0.485902
(1,13,8): (1,12,8) 0.337573 (1,13,7) 0.299077 (1,13,9) -0.297410 (1,14,8) -0.356135
(1,13,9): (1,12,9) 0.171894 (1,13,8) 0.297410 (1,13,10) -0.172417 (1,14,9) -0.239521
(1,13,10): (1,12,10) 0.107016 (1,13,9) 0.172417 (1,14,10) -0.177864
(1,14,1): (1,13,1) 9.040037E-02 (1,14,2) 9.472934E-02 (1,15,1) -6.033141E-02
(1,14,2): (1,13,2) 0.130591 (1,14,1) -9.472934E-02 (1,14,3) 0.176328 (1,15,2) -8.508887E-02
(1,14,3): (1,13,3) 0.215761 (1,14,2) -0.176328 (1,14,4) 0.220255 (1,15,3) -0.133976
(1,14,4): (1,13,4) 0.345170 (1,14,3) -0.220255 (1,14,5) 0.191647 (1,15,4) -0.200318
(1,14,5): (1,13,5) 0.481720 (1,14,4) -0.191647 (1,14,6) 7.602743E-02 (1,15,5) -0.262410
(1,14,6): (1,13,6) 0.524299 (1,14,5) -7.602743E-02 (1,14,7) -6.209062E-02 (1,15,6) -0.285658
(1,14,7): (1,13,7) 0.485902 (1,14,6) 6.209062E-02 (1,14,8) -0.169544 (1,15,7) -0.265214
(1,14,8): (1,13,8) 0.356135 (1,14,7) 0.169544 (1,14,9) -0.180862 (1,15,8) -0.207722
(1,14,9): (1,13,9) 0.239521 (1,14,8) 0.180862 (1,14,10) -0.110800 (1,15,9) -0.150027
(1,14,10): (1,13,10) 0.177864 (1,14,9) 0.110800 (1,15,10) -0.116613
(1,15,1): (1,14,1) 6.033141E-02 (1,15,2) 6.996952E-02
(1,15,2): (1,14,2) 8.508887E-02 (1,15,1) -6.996952E-02 (1,15,3) 0.127420
(1,15,3): (1,14,3) 0.133976 (1,15,2) -0.127420 (1,15,4) 0.153900
(1,15,4): (1,14,4) 0.200318 (1,15,3) -0.153900 (1,15,5) 0.129597
(1,15,5): (1,14,5) 0.262410 (1,15,4) -0.129597 (1,15,6) 5.282762E-02
(1,15,6): (1,14,6) 0.285658 (1,15,5) -5.282762E-02 (1,15,7) -4.169192E-02
(1,15,7): (1,14,7) 0.265214 (1,15,6) 4.169192E-02 (1,15,8) -0.112105
(1,15,8): (1,14,8) 0.207722 (1,15,7) 0.112105 (1,15,9) -0.123183
(1,15,9): (1,14,9) 0.150027 (1,15,8) 0.123183 (1,15,10) -7.739896E-02
(1,15,10): (1,14,10) 0.116613 (1,15,9) 7.739896E-02

 WEL PACKAGE (WEL-1) FLOW RATES   PERIOD      2   STEP       86
 ----------------------------------------------------------------------------------------
   NUMBER   CELLID                    RATE       NAME                                    
 ----------------------------------------------------------------------------------------
     1      (1,8,6)              -200.53916      WEL                                     
 ----------------------------------------------------------------------------------------




 API PACKAGE (MAR) FLOW RATES   PERIOD      2   STEP       86
 -----------------------------------------------
   NUMBER   CELLID                    RATE      
 -----------------------------------------------
     1      (1,6,5)               46.666667     
     2      (1,6,6)               46.666667     
     3      (1,6,7)               46.666667     
     4      (1,10,5)              20.179719     
     5      (1,10,6)              20.179719     
     6      (1,10,7)              20.179719     
 -----------------------------------------------



1
  HEAD IN LAYER   1 AT END OF TIME STEP  86 IN STRESS PERIOD    2
  ---------------------------------------------------------------------------

            1           2           3           4           5           6           7           8           9          10
 ........................................................................................................................
   1   3.0848E-02  4.2321E-02  6.3810E-02  9.0758E-02  0.1143      0.1239      0.1157      9.4622E-02  7.2099E-02  5.8255E-02
   2   4.2167E-02  5.9584E-02  9.3283E-02  0.1376      0.1781      0.1946      0.1800      0.1427      0.1045      8.1794E-02
   3   6.2017E-02  9.1352E-02  0.1510      0.2356      0.3197      0.3526      0.3224      0.2428      0.1673      0.1248    
   4   8.2417E-02  0.1276      0.2266      0.3847      0.5665      0.6296      0.5697      0.3937      0.2477      0.1729    
   5   8.8405E-02  0.1448      0.2836      0.5546      0.9714       1.069      0.9747      0.5639      0.3056      0.1941    
   6   6.3450E-02  0.1062      0.2339      0.5987       1.686       1.704       1.688      0.6054      0.2497      0.1408    
   7   9.4444E-03 -5.4798E-03 -5.2796E-02 -0.1784     -0.5115      -1.599     -0.5101     -0.1757     -4.9295E-02 -5.0593E-03
   8  -3.1002E-02 -9.1549E-02 -0.2819     -0.8280      -2.488      -8.664      -2.488     -0.8285     -0.2879     -0.1174    
   9  -2.5025E-02 -7.2020E-02 -0.2039     -0.5087      -1.146      -2.353      -1.146     -0.5090     -0.2087     -9.3378E-02
  10   8.3390E-03 -5.6745E-04 -1.4145E-02  1.6843E-02  0.3477      0.1821      0.3488      1.9155E-02 -1.1341E-02 -3.0473E-04
  11   3.4456E-02  4.6107E-02  7.5199E-02  0.1396      0.2579      0.2533      0.2597      0.1442      8.4338E-02  6.2509E-02
  12   4.2174E-02  5.8331E-02  9.1961E-02  0.1435      0.2012      0.2156      0.2032      0.1487      0.1031      7.9605E-02
  13   3.6881E-02  5.0306E-02  7.6261E-02  0.1108      0.1432      0.1548      0.1450      0.1155      8.6083E-02  6.8988E-02
  14   2.7874E-02  3.7312E-02  5.4849E-02  7.6706E-02  9.5689E-02  0.1032      9.7069E-02  8.0277E-02  6.2335E-02  5.1324E-02
  15   2.1858E-02  2.8835E-02  4.1524E-02  5.6827E-02  6.9697E-02  7.4941E-02  7.0802E-02  5.9671E-02  4.7425E-02  3.9722E-02

 HEAD WILL BE SAVED ON UNIT 1043 AT END OF TIME STEP   86, STRESS PERIOD    2


  VOLUME BUDGET FOR ENTIRE MODEL AT END OF TIME STEP   86, STRESS PERIOD   2
  ---------------------------------------------------------------------------------------------------

     CUMULATIVE VOLUME      L**3       RATES FOR THIS TIME STEP      L**3/T          PACKAGE NAME    
     ------------------                 ------------------------                     ----------------

           IN:                                      IN:
           ---                                      ---
              STO-SS =          26.7923                STO-SS =       1.3431E-02     STORAGE                          
              STO-SY =       63022.7086                STO-SY =          27.7264     STORAGE                          
                 WEL =           0.0000                   WEL =           0.0000     WEL-1                            
                 API =      191968.8862                   API =         200.5392     MAR                              
                 CHD =       2.8247E-08                   CHD =           0.0000     CHD_0                            

            TOTAL IN =      255018.3871              TOTAL IN =         228.2790

          OUT:                                     OUT:
          ----                                     ----
              STO-SS =          32.6649                STO-SS =       1.4234E-02     STORAGE                          
              STO-SY =       63016.8360                STO-SY =          27.7256     STORAGE                          
                 WEL =      191968.8861                   WEL =         200.5392     WEL-1                            
                 API =           0.0000                   API =           0.0000     MAR                              
                 CHD =       3.0388E-08                   CHD =           0.0000     CHD_0                            

           TOTAL OUT =      255018.3871             TOTAL OUT =         228.2790

            IN - OUT =       3.7490E-06              IN - OUT =       9.9396E-09

 PERCENT DISCREPANCY =           0.00     PERCENT DISCREPANCY =           0.00




         TIME SUMMARY AT END OF TIME STEP   86 IN STRESS PERIOD    2
                    SECONDS     MINUTES      HOURS       DAYS        YEARS
                    -----------------------------------------------------------
   TIME STEP LENGTH 8.64000E+05  14400.      240.00      10.000     2.73785E-02
 STRESS PERIOD TIME 7.43040E+07 1.23840E+06  20640.      860.00      2.3546    
         TOTAL TIME 7.43904E+07 1.23984E+06  20664.      861.00      2.3573    


end timestep


start timestep kper="2" kstp="87" mode="normal"

 UBDSV1 SAVING           STO-SS ON UNIT   1042 AT TIME STEP     87, STRESS PERIOD      2
 UBDSV1 SAVING           STO-SY ON UNIT   1042 AT TIME STEP     87, STRESS PERIOD      2
 UBDSV1 SAVING     FLOW-JA-FACE ON UNIT   1042 AT TIME STEP     87, STRESS PERIOD      2
 UBDSV06 SAVING       DATA-SPDIS IN MODEL GWF              PACKAGE NPF             CONNECTED TO MODEL GWF              PACKAGE NPF              ON UNIT   1042 AT TIME STEP     87, STRESS PERIOD      2
 UBDSV06 SAVING              WEL IN MODEL GWF              PACKAGE GWF             CONNECTED TO MODEL GWF              PACKAGE WEL-1            ON UNIT   1042 AT TIME STEP     87, STRESS PERIOD      2
 UBDSV06 SAVING              API IN MODEL GWF              PACKAGE GWF             CONNECTED TO MODEL GWF              PACKAGE MAR              ON UNIT   1042 AT TIME STEP     87, STRESS PERIOD      2
 UBDSV06 SAVING              CHD IN MODEL GWF              PACKAGE GWF             CONNECTED TO MODEL GWF              PACKAGE CHD_0            ON UNIT   1042 AT TIME STEP     87, STRESS PERIOD      2

    CALCULATED INTERCELL FLOW FOR PERIOD 2 STEP 87
(1,1,1): (1,1,2) 0.117513 (1,2,1) 0.115259
(1,1,2): (1,1,1) -0.117513 (1,1,3) 0.220206 (1,2,2) 0.175491
(1,1,3): (1,1,2) -0.220206 (1,1,4) 0.276345 (1,2,3) 0.299684
(1,1,4): (1,1,3) -0.276345 (1,1,5) 0.241303 (1,2,4) 0.477349
(1,1,5): (1,1,4) -0.241303 (1,1,6) 9.930527E-02 (1,2,5) 0.652821
(1,1,6): (1,1,5) -9.930527E-02 (1,1,7) -8.369824E-02 (1,2,6) 0.723618
(1,1,7): (1,1,6) 8.369824E-02 (1,1,8) -0.216110 (1,2,7) 0.657665
(1,1,8): (1,1,7) 0.216110 (1,1,9) -0.230312 (1,2,8) 0.490601
(1,1,9): (1,1,8) 0.230312 (1,1,10) -0.141374 (1,2,9) 0.330118
(1,1,10): (1,1,9) 0.141374 (1,2,10) 0.239818
(1,2,1): (1,1,1) -0.115259 (1,2,2) 0.177746 (1,3,1) 0.201724
(1,2,2): (1,1,2) -0.175491 (1,2,1) -0.177746 (1,2,3) 0.344453 (1,3,2) 0.322766
(1,2,3): (1,1,3) -0.299684 (1,2,2) -0.344453 (1,2,4) 0.453970 (1,3,3) 0.588604
(1,2,4): (1,1,4) -0.477349 (1,2,3) -0.453970 (1,2,5) 0.416380 (1,3,4) 1.00645
(1,2,5): (1,1,5) -0.652821 (1,2,4) -0.416380 (1,2,6) 0.169731 (1,3,5) 1.46400
(1,2,6): (1,1,6) -0.723618 (1,2,5) -0.169731 (1,2,7) -0.149292 (1,3,6) 1.63914
(1,2,7): (1,1,7) -0.657665 (1,2,6) 0.149292 (1,2,8) -0.382736 (1,3,7) 1.47210
(1,2,8): (1,1,8) -0.490601 (1,2,7) 0.382736 (1,2,9) -0.390639 (1,3,8) 1.02875
(1,2,9): (1,1,9) -0.330118 (1,2,8) 0.390639 (1,2,10) -0.231587 (1,3,9) 0.640994
(1,2,10): (1,1,10) -0.239818 (1,2,9) 0.231587 (1,3,10) 0.437969
(1,3,1): (1,2,1) -0.201724 (1,3,2) 0.298759 (1,4,1) 0.206145
(1,3,2): (1,2,2) -0.322766 (1,3,1) -0.298759 (1,3,3) 0.610347 (1,4,2) 0.367429
(1,3,3): (1,2,3) -0.588604 (1,3,2) -0.610347 (1,3,4) 0.871282 (1,4,3) 0.772630
(1,3,4): (1,2,4) -1.00645 (1,3,3) -0.871282 (1,3,5) 0.871431 (1,4,4) 1.54673
(1,3,5): (1,2,5) -1.46400 (1,3,4) -0.871431 (1,3,6) 0.342809 (1,4,5) 2.60609
(1,3,6): (1,2,6) -1.63914 (1,3,5) -0.342809 (1,3,7) -0.314324 (1,4,6) 2.94244
(1,3,7): (1,2,7) -1.47210 (1,3,6) 0.314324 (1,3,8) -0.823436 (1,4,7) 2.61369
(1,3,8): (1,2,8) -1.02875 (1,3,7) 0.823436 (1,3,9) -0.777476 (1,4,8) 1.56764
(1,3,9): (1,2,9) -0.640994 (1,3,8) 0.777476 (1,3,10) -0.434210 (1,4,9) 0.823949
(1,3,10): (1,2,10) -0.437969 (1,3,9) 0.434210 (1,4,10) 0.490028
(1,4,1): (1,3,1) -0.206145 (1,4,2) 0.460188 (1,5,1) 5.770848E-02
(1,4,2): (1,3,2) -0.367429 (1,4,1) -0.460188 (1,4,3) 1.01648 (1,5,2) 0.170571
(1,4,3): (1,3,3) -0.772630 (1,4,2) -1.01648 (1,4,4) 1.64608 (1,5,3) 0.580485
(1,4,4): (1,3,4) -1.54673 (1,4,3) -1.64608 (1,4,5) 1.92450 (1,5,4) 1.78648
(1,4,5): (1,3,5) -2.60609 (1,4,4) -1.92450 (1,4,6) 0.672713 (1,5,5) 4.43429
(1,4,6): (1,3,6) -2.94244 (1,4,5) -0.672713 (1,4,7) -0.636672 (1,5,6) 4.85682
(1,4,7): (1,3,7) -2.61369 (1,4,6) 0.636672 (1,4,8) -1.86263 (1,5,7) 4.43580
(1,4,8): (1,3,8) -1.56764 (1,4,7) 1.86263 (1,4,9) -1.52085 (1,5,8) 1.78975
(1,4,9): (1,3,9) -0.823949 (1,4,8) 1.52085 (1,4,10) -0.767956 (1,5,9) 0.590870
(1,4,10): (1,3,10) -0.490028 (1,4,9) 0.767956 (1,5,10) 0.210430
(1,5,1): (1,4,1) -5.770848E-02 (1,5,2) 0.573492 (1,6,1) -0.257803
(1,5,2): (1,4,2) -0.170571 (1,5,1) -0.573492 (1,5,3) 1.42967 (1,6,2) -0.398968
(1,5,3): (1,4,3) -0.580485 (1,5,2) -1.42967 (1,5,4) 2.86358 (1,6,3) -0.520553
(1,5,4): (1,4,4) -1.78648 (1,5,3) -2.86358 (1,5,5) 4.57533 (1,6,4) 0.454100
(1,5,5): (1,4,5) -4.43429 (1,5,4) -4.57533 (1,5,6) 1.08345 (1,6,5) 8.33470
(1,5,6): (1,4,6) -4.85682 (1,5,5) -1.08345 (1,5,7) -1.04578 (1,6,6) 7.41749
(1,5,7): (1,4,7) -4.43580 (1,5,6) 1.04578 (1,5,8) -4.51028 (1,6,7) 8.32576
(1,5,8): (1,4,8) -1.78975 (1,5,7) 4.51028 (1,5,9) -2.72970 (1,6,8) 0.427052
(1,5,9): (1,4,9) -0.590870 (1,5,8) 2.72970 (1,5,10) -1.15039 (1,6,9) -0.588613
(1,5,10): (1,4,10) -0.210430 (1,5,9) 1.15039 (1,6,10) -0.553845
(1,6,1): (1,5,1) 0.257803 (1,6,2) 0.432090 (1,7,1) -0.551086
(1,6,2): (1,5,2) 0.398968 (1,6,1) -0.432090 (1,6,3) 1.30709 (1,7,2) -1.13853
(1,6,3): (1,5,3) 0.520553 (1,6,2) -1.30709 (1,6,4) 3.86575 (1,7,3) -2.94758
(1,6,4): (1,5,4) -0.454100 (1,6,3) -3.86575 (1,6,5) 12.7067 (1,7,4) -8.25236
(1,6,5): (1,5,5) -8.33470 (1,6,4) -12.7067 (1,6,6) 0.215153 (1,7,5) -25.6952
(1,6,6): (1,5,6) -7.41749 (1,6,5) -0.215153 (1,6,7) -0.186050 (1,7,6) -38.6756
(1,6,7): (1,5,7) -8.32576 (1,6,6) 0.186050 (1,6,8) -12.6581 (1,7,7) -25.7131
(1,6,8): (1,5,8) -0.427052 (1,6,7) 12.6581 (1,6,9) -3.77282 (1,7,8) -8.30070
(1,6,9): (1,5,9) 0.588613 (1,6,8) 3.77282 (1,6,10) -1.11547 (1,7,9) -3.07925
(1,6,10): (1,5,10) 0.553845 (1,6,9) 1.11547 (1,7,10) -1.49238
(1,7,1): (1,6,1) 0.551086 (1,7,2) -0.151540 (1,8,1) -0.411252
(1,7,2): (1,6,2) 1.13853 (1,7,1) 0.151540 (1,7,3) -0.476124 (1,8,2) -0.868797
(1,7,3): (1,6,3) 2.94758 (1,7,2) 0.476124 (1,7,4) -1.25184 (1,8,3) -2.29140
(1,7,4): (1,6,4) 8.25236 (1,7,3) 1.25184 (1,7,5) -3.26861 (1,8,4) -6.39556
(1,7,5): (1,6,5) 25.6952 (1,7,4) 3.26861 (1,7,6) -10.3146 (1,8,5) -18.7743
(1,7,6): (1,6,6) 38.6756 (1,7,5) 10.3146 (1,7,7) 10.3296 (1,8,6) -59.3531
(1,7,7): (1,6,7) 25.7131 (1,7,6) -10.3296 (1,7,8) 3.28334 (1,8,7) -18.7869
(1,7,8): (1,6,8) 8.30070 (1,7,7) -3.28334 (1,7,9) 1.25877 (1,8,8) -6.43064
(1,7,9): (1,6,9) 3.07925 (1,7,8) -1.25877 (1,7,10) 0.444011 (1,8,9) -2.38822
(1,7,10): (1,6,10) 1.49238 (1,7,9) -0.444011 (1,8,10) -1.13419
(1,8,1): (1,7,1) 0.411252 (1,8,2) -0.607895 (1,9,1) 5.680956E-02
(1,8,2): (1,7,2) 0.868797 (1,8,1) 0.607895 (1,8,3) -1.89309 (1,9,2) 0.189312
(1,8,3): (1,7,3) 2.29140 (1,8,2) 1.89309 (1,8,4) -5.31201 (1,9,3) 0.756098
(1,8,4): (1,7,4) 6.39556 (1,8,3) 5.31201 (1,8,5) -15.2246 (1,9,4) 3.01394
(1,8,5): (1,7,5) 18.7743 (1,8,4) 15.2246 (1,8,6) -46.3582 (1,9,5) 11.8543
(1,8,6): (1,7,6) 59.3531 (1,8,5) 46.3582 (1,8,7) 46.3634 (1,9,6) 48.1956
(1,8,7): (1,7,7) 18.7869 (1,8,6) -46.3634 (1,8,8) 15.2151 (1,9,7) 11.8551
(1,8,8): (1,7,8) 6.43064 (1,8,7) -15.2151 (1,8,9) 5.25413 (1,9,8) 3.01619
(1,8,9): (1,7,9) 2.38822 (1,8,8) -5.25413 (1,8,10) 1.68931 (1,9,9) 0.765963
(1,8,10): (1,7,10) 1.13419 (1,8,9) -1.68931 (1,9,10) 0.231265
(1,9,1): (1,8,1) -5.680956E-02 (1,9,2) -0.474832 (1,10,1) 0.335476
(1,9,2): (1,8,2) -0.189312 (1,9,1) 0.474832 (1,9,3) -1.31968 (1,10,2) 0.715634
(1,9,3): (1,8,3) -0.756098 (1,9,2) 1.31968 (1,9,4) -2.99909 (1,10,3) 1.89375
(1,9,4): (1,8,4) -3.01394 (1,9,3) 2.99909 (1,9,5) -6.05656 (1,10,4) 5.25816
(1,9,5): (1,8,5) -11.8543 (1,9,4) 6.05656 (1,9,6) -10.6775 (1,10,5) 15.4319
(1,9,6): (1,8,6) -48.1956 (1,9,5) 10.6775 (1,9,7) 10.6817 (1,10,6) 25.7711
(1,9,7): (1,8,7) -11.8551 (1,9,6) -10.6817 (1,9,8) 6.04945 (1,10,7) 15.4406
(1,9,8): (1,8,8) -3.01619 (1,9,7) -6.04945 (1,9,9) 2.95041 (1,10,8) 5.28504
(1,9,9): (1,8,9) -0.765963 (1,9,8) -2.95041 (1,9,10) 1.14952 (1,10,9) 1.97120
(1,9,10): (1,8,10) -0.231265 (1,9,9) -1.14952 (1,10,10) 0.932375
(1,10,1): (1,9,1) -0.335476 (1,10,2) -9.558629E-02 (1,11,1) 0.266681
(1,10,2): (1,9,2) -0.715634 (1,10,1) 9.558629E-02 (1,10,3) -0.148270 (1,11,2) 0.474870
(1,10,3): (1,9,3) -1.89375 (1,10,2) 0.148270 (1,10,4) 0.292728 (1,11,3) 0.908636
(1,10,4): (1,9,4) -5.25816 (1,10,3) -0.292728 (1,10,5) 3.39941 (1,11,4) 1.25694
(1,10,5): (1,9,5) -15.4319 (1,10,4) -3.39941 (1,10,6) -1.71809 (1,11,5) -0.907382
(1,10,6): (1,9,6) -25.7711 (1,10,5) 1.71809 (1,10,7) 1.72970 (1,11,6) 0.752333
(1,10,7): (1,9,7) -15.4406 (1,10,6) -1.72970 (1,10,8) -3.38787 (1,11,7) -0.899714
(1,10,8): (1,9,8) -5.28504 (1,10,7) 3.38787 (1,10,9) -0.289507 (1,11,8) 1.28115
(1,10,9): (1,9,9) -1.97120 (1,10,8) 0.289507 (1,10,10) 0.119166 (1,11,9) 0.974591
(1,10,10): (1,9,10) -0.932375 (1,10,9) -0.119166 (1,11,10) 0.640325
(1,11,1): (1,10,1) -0.266681 (1,11,2) 0.111947 (1,12,1) 8.249832E-02
(1,11,2): (1,10,2) -0.474870 (1,11,1) -0.111947 (1,11,3) 0.283050 (1,12,2) 0.130088
(1,11,3): (1,10,3) -0.908636 (1,11,2) -0.283050 (1,11,4) 0.638976 (1,12,3) 0.180411
(1,11,4): (1,10,4) -1.25694 (1,11,3) -0.638976 (1,11,5) 1.19944 (1,12,4) 5.639188E-02
(1,11,5): (1,10,5) 0.907382 (1,11,4) -1.19944 (1,11,6) -5.112753E-02 (1,12,5) -0.557953
(1,11,6): (1,10,6) -0.752333 (1,11,5) 5.112753E-02 (1,11,7) 7.016753E-02 (1,12,6) -0.361719
(1,11,7): (1,10,7) 0.899714 (1,11,6) -7.016753E-02 (1,11,8) -1.17164 (1,12,7) -0.555809
(1,11,8): (1,10,8) -1.28115 (1,11,7) 1.17164 (1,11,9) -0.594054 (1,12,8) 6.402530E-02
(1,11,9): (1,10,9) -0.974591 (1,11,8) 0.594054 (1,11,10) -0.212747 (1,12,9) 0.202111
(1,11,10): (1,10,10) -0.640325 (1,11,9) 0.212747 (1,12,10) 0.182201
(1,12,1): (1,11,1) -8.249832E-02 (1,12,2) 0.159550 (1,13,1) -4.976863E-02
(1,12,2): (1,11,2) -0.130088 (1,12,1) -0.159550 (1,12,3) 0.333448 (1,13,2) -7.546651E-02
(1,12,3): (1,11,3) -0.180411 (1,12,2) -0.333448 (1,12,4) 0.514400 (1,13,3) -0.149610
(1,12,4): (1,11,4) -5.639188E-02 (1,12,3) -0.514400 (1,12,5) 0.581370 (1,13,4) -0.317429
(1,12,5): (1,11,5) 0.557953 (1,12,4) -0.581370 (1,12,6) 0.144362 (1,13,5) -0.574016
(1,12,6): (1,11,6) 0.361719 (1,12,5) -0.144362 (1,12,7) -0.123173 (1,13,6) -0.601220
(1,12,7): (1,11,7) 0.555809 (1,12,6) 0.123173 (1,12,8) -0.548214 (1,13,7) -0.576633
(1,12,8): (1,11,8) -6.402530E-02 (1,12,7) 0.548214 (1,12,9) -0.455439 (1,13,8) -0.323725
(1,12,9): (1,11,9) -0.202111 (1,12,8) 0.455439 (1,12,10) -0.232663 (1,13,9) -0.162147
(1,12,10): (1,11,10) -0.182201 (1,12,9) 0.232663 (1,13,10) -9.971164E-02
(1,13,1): (1,12,1) 4.976863E-02 (1,13,2) 0.133831 (1,14,1) -8.894499E-02
(1,13,2): (1,12,2) 7.546651E-02 (1,13,1) -0.133831 (1,13,3) 0.259170 (1,14,2) -0.127970
(1,13,3): (1,12,3) 0.149610 (1,13,2) -0.259170 (1,13,4) 0.346262 (1,14,3) -0.210906
(1,13,4): (1,12,4) 0.317429 (1,13,3) -0.346262 (1,13,5) 0.324765 (1,14,4) -0.337435
(1,13,5): (1,12,5) 0.574016 (1,13,4) -0.324765 (1,13,6) 0.117273 (1,14,5) -0.471409
(1,13,6): (1,12,6) 0.601220 (1,13,5) -0.117273 (1,13,7) -9.869592E-02 (1,14,6) -0.512981
(1,13,7): (1,12,7) 0.576633 (1,13,6) 9.869592E-02 (1,13,8) -0.295374 (1,14,7) -0.475573
(1,13,8): (1,12,8) 0.323725 (1,13,7) 0.295374 (1,13,9) -0.293655 (1,14,8) -0.348290
(1,13,9): (1,12,9) 0.162147 (1,13,8) 0.293655 (1,13,10) -0.170186 (1,14,9) -0.234268
(1,13,10): (1,12,10) 9.971164E-02 (1,13,9) 0.170186 (1,14,10) -0.174188
(1,14,1): (1,13,1) 8.894499E-02 (1,14,2) 9.480346E-02 (1,15,1) -5.999492E-02
(1,14,2): (1,13,2) 0.127970 (1,14,1) -9.480346E-02 (1,14,3) 0.176195 (1,15,2) -8.424890E-02
(1,14,3): (1,13,3) 0.210906 (1,14,2) -0.176195 (1,14,4) 0.219722 (1,15,3) -0.132162
(1,14,4): (1,13,4) 0.337435 (1,14,3) -0.219722 (1,14,5) 0.190981 (1,15,4) -0.197246
(1,14,5): (1,13,5) 0.471409 (1,14,4) -0.190981 (1,14,6) 7.585869E-02 (1,15,5) -0.258225
(1,14,6): (1,13,6) 0.512981 (1,14,5) -7.585869E-02 (1,14,7) -6.143690E-02 (1,15,6) -0.281035
(1,14,7): (1,13,7) 0.475573 (1,14,6) 6.143690E-02 (1,14,8) -0.168312 (1,15,7) -0.261045
(1,14,8): (1,13,8) 0.348290 (1,14,7) 0.168312 (1,14,9) -0.179693 (1,15,8) -0.204653
(1,14,9): (1,13,9) 0.234268 (1,14,8) 0.179693 (1,14,10) -0.110144 (1,15,9) -0.148120
(1,14,10): (1,13,10) 0.174188 (1,14,9) 0.110144 (1,15,10) -0.115419
(1,15,1): (1,14,1) 5.999492E-02 (1,15,2) 7.054694E-02
(1,15,2): (1,14,2) 8.424890E-02 (1,15,1) -7.054694E-02 (1,15,3) 0.128261
(1,15,3): (1,14,3) 0.132162 (1,15,2) -0.128261 (1,15,4) 0.154623
(1,15,4): (1,14,4) 0.197246 (1,15,3) -0.154623 (1,15,5) 0.130042
(1,15,5): (1,14,5) 0.258225 (1,15,4) -0.130042 (1,15,6) 5.309323E-02
(1,15,6): (1,14,6) 0.281035 (1,15,5) -5.309323E-02 (1,15,7) -4.148884E-02
(1,15,7): (1,14,7) 0.261045 (1,15,6) 4.148884E-02 (1,15,8) -0.111971
(1,15,8): (1,14,8) 0.204653 (1,15,7) 0.111971 (1,15,9) -0.123175
(1,15,9): (1,14,9) 0.148120 (1,15,8) 0.123175 (1,15,10) -7.745493E-02
(1,15,10): (1,14,10) 0.115419 (1,15,9) 7.745493E-02

 WEL PACKAGE (WEL-1) FLOW RATES   PERIOD      2   STEP       87
 ----------------------------------------------------------------------------------------
   NUMBER   CELLID                    RATE       NAME                                    
 ----------------------------------------------------------------------------------------
     1      (1,8,6)              -200.41192      WEL                                     
 ----------------------------------------------------------------------------------------




 API PACKAGE (MAR) FLOW RATES   PERIOD      2   STEP       87
 -----------------------------------------------
   NUMBER   CELLID                    RATE      
 -----------------------------------------------
     1      (1,6,5)               46.666667     
     2      (1,6,6)               46.666667     
     3      (1,6,7)               46.666667     
     4      (1,10,5)              20.137307     
     5      (1,10,6)              20.137307     
     6      (1,10,7)              20.137307     
 -----------------------------------------------



1
  HEAD IN LAYER   1 AT END OF TIME STEP  87 IN STRESS PERIOD    2
  ---------------------------------------------------------------------------

            1           2           3           4           5           6           7           8           9          10
 ........................................................................................................................
   1   3.2011E-02  4.3711E-02  6.5588E-02  9.2968E-02  0.1168      0.1266      0.1184      9.7003E-02  7.4193E-02  6.0160E-02
   2   4.3487E-02  6.1154E-02  9.5274E-02  0.1400      0.1809      0.1976      0.1829      0.1454      0.1069      8.3942E-02
   3   6.3532E-02  9.3132E-02  0.1532      0.2383      0.3228      0.3559      0.3255      0.2458      0.1699      0.1272    
   4   8.3975E-02  0.1294      0.2288      0.3873      0.5693      0.6326      0.5727      0.3966      0.2503      0.1753    
   5   8.9694E-02  0.1462      0.2852      0.5565      0.9734       1.071      0.9768      0.5659      0.3076      0.1960    
   6   6.4143E-02  0.1069      0.2346      0.5993       1.687       1.705       1.689      0.6062      0.2505      0.1417    
   7   9.3859E-03 -5.7539E-03 -5.3394E-02 -0.1792     -0.5121      -1.599     -0.5107     -0.1764     -4.9914E-02 -5.4881E-03
   8  -3.1701E-02 -9.2684E-02 -0.2838     -0.8305      -2.491      -8.664      -2.490     -0.8310     -0.2899     -0.1190    
   9  -2.6005E-02 -7.3612E-02 -0.2066     -0.5128      -1.151      -2.358      -1.151     -0.5131     -0.2117     -9.5619E-02
  10   7.5175E-03 -2.0340E-03 -1.6864E-02  1.2373E-02  0.3411      0.1750      0.3422      1.4629E-02 -1.4279E-02 -2.3598E-03
  11   3.4095E-02  4.5239E-02  7.3338E-02  0.1364      0.2534      0.2484      0.2552      0.1410      8.2384E-02  6.1283E-02
  12   4.2310E-02  5.8173E-02  9.1216E-02  0.1419      0.1989      0.2131      0.2010      0.1473      0.1024      7.9359E-02
  13   3.7354E-02  5.0670E-02  7.6390E-02  0.1106      0.1427      0.1542      0.1445      0.1154      8.6340E-02  6.9467E-02
  14   2.8493E-02  3.7937E-02  5.5460E-02  7.7263E-02  9.6179E-02  0.1037      9.7607E-02  8.0938E-02  6.3113E-02  5.2168E-02
  15   2.2510E-02  2.9544E-02  4.2316E-02  5.7690E-02  7.0603E-02  7.5872E-02  7.1755E-02  6.0637E-02  4.8394E-02  4.0686E-02

 HEAD WILL BE SAVED ON UNIT 1043 AT END OF TIME STEP   87, STRESS PERIOD    2


  VOLUME BUDGET FOR ENTIRE MODEL AT END OF TIME STEP   87, STRESS PERIOD   2
  ---------------------------------------------------------------------------------------------------

     CUMULATIVE VOLUME      L**3       RATES FOR THIS TIME STEP      L**3/T          PACKAGE NAME    
     ------------------                 ------------------------                     ----------------

           IN:                                      IN:
           ---                                      ---
              STO-SS =          26.9254                STO-SS =       1.3318E-02     STORAGE                          
              STO-SY =       63297.6134                STO-SY =          27.4905     STORAGE                          
                 WEL =           0.0000                   WEL =           0.0000     WEL-1                            
                 API =      193973.0054                   API =         200.4119     MAR                              
                 CHD =       2.8247E-08                   CHD =           0.0000     CHD_0                            

            TOTAL IN =      257297.5443              TOTAL IN =         227.9157

          OUT:                                     OUT:
          ----                                     ----
              STO-SS =          32.8061                STO-SS =       1.4114E-02     STORAGE                          
              STO-SY =       63291.7329                STO-SY =          27.4897     STORAGE                          
                 WEL =      193973.0053                   WEL =         200.4119     WEL-1                            
                 API =           0.0000                   API =           0.0000     MAR                              
                 CHD =       3.0388E-08                   CHD =           0.0000     CHD_0                            

           TOTAL OUT =      257297.5443             TOTAL OUT =         227.9157

            IN - OUT =       3.8474E-06              IN - OUT =       9.8370E-09

 PERCENT DISCREPANCY =           0.00     PERCENT DISCREPANCY =           0.00




         TIME SUMMARY AT END OF TIME STEP   87 IN STRESS PERIOD    2
                    SECONDS     MINUTES      HOURS       DAYS        YEARS
                    -----------------------------------------------------------
   TIME STEP LENGTH 8.64000E+05  14400.      240.00      10.000     2.73785E-02
 STRESS PERIOD TIME 7.51680E+07 1.25280E+06  20880.      870.00      2.3819    
         TOTAL TIME 7.52544E+07 1.25424E+06  20904.      871.00      2.3847    


end timestep


start timestep kper="2" kstp="88" mode="normal"

 UBDSV1 SAVING           STO-SS ON UNIT   1042 AT TIME STEP     88, STRESS PERIOD      2
 UBDSV1 SAVING           STO-SY ON UNIT   1042 AT TIME STEP     88, STRESS PERIOD      2
 UBDSV1 SAVING     FLOW-JA-FACE ON UNIT   1042 AT TIME STEP     88, STRESS PERIOD      2
 UBDSV06 SAVING       DATA-SPDIS IN MODEL GWF              PACKAGE NPF             CONNECTED TO MODEL GWF              PACKAGE NPF              ON UNIT   1042 AT TIME STEP     88, STRESS PERIOD      2
 UBDSV06 SAVING              WEL IN MODEL GWF              PACKAGE GWF             CONNECTED TO MODEL GWF              PACKAGE WEL-1            ON UNIT   1042 AT TIME STEP     88, STRESS PERIOD      2
 UBDSV06 SAVING              API IN MODEL GWF              PACKAGE GWF             CONNECTED TO MODEL GWF              PACKAGE MAR              ON UNIT   1042 AT TIME STEP     88, STRESS PERIOD      2
 UBDSV06 SAVING              CHD IN MODEL GWF              PACKAGE GWF             CONNECTED TO MODEL GWF              PACKAGE CHD_0            ON UNIT   1042 AT TIME STEP     88, STRESS PERIOD      2

    CALCULATED INTERCELL FLOW FOR PERIOD 2 STEP 88
(1,1,1): (1,1,2) 0.119787 (1,2,1) 0.116804
(1,1,2): (1,1,1) -0.119787 (1,1,3) 0.224111 (1,2,2) 0.177253
(1,1,3): (1,1,2) -0.224111 (1,1,4) 0.280719 (1,2,3) 0.301799
(1,1,4): (1,1,3) -0.280719 (1,1,5) 0.244789 (1,2,4) 0.479832
(1,1,5): (1,1,4) -0.244789 (1,1,6) 0.100830 (1,2,5) 0.655585
(1,1,6): (1,1,5) -0.100830 (1,1,7) -8.446940E-02 (1,2,6) 0.726519
(1,1,7): (1,1,6) 8.446940E-02 (1,1,8) -0.218580 (1,2,7) 0.660537
(1,1,8): (1,1,7) 0.218580 (1,1,9) -0.233199 (1,2,8) 0.493327
(1,1,9): (1,1,8) 0.233199 (1,1,10) -0.143271 (1,2,9) 0.332656
(1,1,10): (1,1,9) 0.143271 (1,2,10) 0.242223
(1,2,1): (1,1,1) -0.116804 (1,2,2) 0.180238 (1,3,1) 0.203628
(1,2,2): (1,1,2) -0.177253 (1,2,1) -0.180238 (1,2,3) 0.348713 (1,3,2) 0.324845
(1,2,3): (1,1,3) -0.301799 (1,2,2) -0.348713 (1,2,4) 0.458716 (1,3,3) 0.590945
(1,2,4): (1,1,4) -0.479832 (1,2,3) -0.458716 (1,2,5) 0.420147 (1,3,4) 1.00903
(1,2,5): (1,1,5) -0.655585 (1,2,4) -0.420147 (1,2,6) 0.171391 (1,3,5) 1.46674
(1,2,6): (1,1,6) -0.726519 (1,2,5) -0.171391 (1,2,7) -0.150091 (1,3,6) 1.64199
(1,2,7): (1,1,7) -0.660537 (1,2,6) 0.150091 (1,2,8) -0.385352 (1,3,7) 1.47498
(1,2,8): (1,1,8) -0.493327 (1,2,7) 0.385352 (1,2,9) -0.393716 (1,3,8) 1.03164
(1,2,9): (1,1,9) -0.332656 (1,2,8) 0.393716 (1,2,10) -0.233617 (1,3,9) 0.643846
(1,2,10): (1,1,10) -0.242223 (1,2,9) 0.233617 (1,3,10) 0.440778
(1,3,1): (1,2,1) -0.203628 (1,3,2) 0.301427 (1,4,1) 0.206516
(1,3,2): (1,2,2) -0.324845 (1,3,1) -0.301427 (1,3,3) 0.614875 (1,4,2) 0.367551
(1,3,3): (1,2,3) -0.590945 (1,3,2) -0.614875 (1,3,4) 0.876276 (1,4,3) 0.772289
(1,3,4): (1,2,4) -1.00903 (1,3,3) -0.876276 (1,3,5) 0.875366 (1,4,4) 1.54582
(1,3,5): (1,2,5) -1.46674 (1,3,4) -0.875366 (1,3,6) 0.344577 (1,4,5) 2.60470
(1,3,6): (1,2,6) -1.64199 (1,3,5) -0.344577 (1,3,7) -0.315087 (1,4,6) 2.94094
(1,3,7): (1,2,7) -1.47498 (1,3,6) 0.315087 (1,3,8) -0.826048 (1,4,7) 2.61236
(1,3,8): (1,2,8) -1.03164 (1,3,7) 0.826048 (1,3,9) -0.780590 (1,4,8) 1.56683
(1,3,9): (1,2,9) -0.643846 (1,3,8) 0.780590 (1,3,10) -0.436281 (1,4,9) 0.823680
(1,3,10): (1,2,10) -0.440778 (1,3,9) 0.436281 (1,4,10) 0.490103
(1,4,1): (1,3,1) -0.206516 (1,4,2) 0.462610 (1,5,1) 5.494905E-02
(1,4,2): (1,3,2) -0.367551 (1,4,1) -0.462610 (1,4,3) 1.02056 (1,5,2) 0.166865
(1,4,3): (1,3,3) -0.772289 (1,4,2) -1.02056 (1,4,4) 1.65055 (1,5,3) 0.575197
(1,4,4): (1,3,4) -1.54582 (1,4,3) -1.65055 (1,4,5) 1.92800 (1,5,4) 1.77951
(1,4,5): (1,3,5) -2.60470 (1,4,4) -1.92800 (1,4,6) 0.674388 (1,5,5) 4.42597
(1,4,6): (1,3,6) -2.94094 (1,4,5) -0.674388 (1,4,7) -0.637281 (1,5,6) 4.84823
(1,4,7): (1,3,7) -2.61236 (1,4,6) 0.637281 (1,4,8) -1.86477 (1,5,7) 4.42736
(1,4,8): (1,3,8) -1.56683 (1,4,7) 1.86477 (1,4,9) -1.52344 (1,5,8) 1.78241
(1,4,9): (1,3,9) -0.823680 (1,4,8) 1.52344 (1,4,10) -0.769689 (1,5,9) 0.584780
(1,4,10): (1,3,10) -0.490103 (1,4,9) 0.769689 (1,5,10) 0.205207
(1,5,1): (1,4,1) -5.494905E-02 (1,5,2) 0.574968 (1,6,1) -0.263840
(1,5,2): (1,4,2) -0.166865 (1,5,1) -0.574968 (1,5,3) 1.43219 (1,6,2) -0.406639
(1,5,3): (1,4,3) -0.575197 (1,5,2) -1.43219 (1,5,4) 2.86646 (1,6,3) -0.530846
(1,5,4): (1,4,4) -1.77951 (1,5,3) -2.86646 (1,5,5) 4.57771 (1,6,4) 0.441377
(1,5,5): (1,4,5) -4.42597 (1,5,4) -4.57771 (1,5,6) 1.08490 (1,6,5) 8.32012
(1,5,6): (1,4,6) -4.84823 (1,5,5) -1.08490 (1,5,7) -1.04628 (1,6,6) 7.40316
(1,5,7): (1,4,7) -4.42736 (1,5,6) 1.04628 (1,5,8) -4.51151 (1,6,7) 8.31084
(1,5,8): (1,4,8) -1.78241 (1,5,7) 4.51151 (1,5,9) -2.73113 (1,6,8) 0.413495
(1,5,9): (1,4,9) -0.584780 (1,5,8) 2.73113 (1,5,10) -1.15127 (1,6,9) -0.600600
(1,5,10): (1,4,10) -0.205207 (1,5,9) 1.15127 (1,6,10) -0.564531
(1,6,1): (1,5,1) 0.263840 (1,6,2) 0.431938 (1,7,1) -0.558656
(1,6,2): (1,5,2) 0.406639 (1,6,1) -0.431938 (1,6,3) 1.30697 (1,7,2) -1.14812
(1,6,3): (1,5,3) 0.530846 (1,6,2) -1.30697 (1,6,4) 3.86614 (1,7,3) -2.96041
(1,6,4): (1,5,4) -0.441377 (1,6,3) -3.86614 (1,6,5) 12.7081 (1,7,4) -8.26817
(1,6,5): (1,5,5) -8.32012 (1,6,4) -12.7081 (1,6,6) 0.216728 (1,7,5) -25.7122
(1,6,6): (1,5,6) -7.40316 (1,6,5) -0.216728 (1,6,7) -0.187008 (1,7,6) -38.6902
(1,6,7): (1,5,7) -8.31084 (1,6,6) 0.187008 (1,6,8) -12.6588 (1,7,7) -25.7306
(1,6,8): (1,5,8) -0.413495 (1,6,7) 12.6588 (1,6,9) -3.77262 (1,7,8) -8.31755
(1,6,9): (1,5,9) 0.600600 (1,6,8) 3.77262 (1,6,10) -1.11505 (1,7,9) -3.09416
(1,6,10): (1,5,10) 0.564531 (1,6,9) 1.11505 (1,7,10) -1.50569
(1,7,1): (1,6,1) 0.558656 (1,7,2) -0.153648 (1,8,1) -0.417645
(1,7,2): (1,6,2) 1.14812 (1,7,1) 0.153648 (1,7,3) -0.479250 (1,8,2) -0.877309
(1,7,3): (1,6,3) 2.96041 (1,7,2) 0.479250 (1,7,4) -1.25369 (1,8,3) -2.30361
(1,7,4): (1,6,4) 8.26817 (1,7,3) 1.25369 (1,7,5) -3.26664 (1,8,4) -6.41160
(1,7,5): (1,6,5) 25.7122 (1,7,4) 3.26664 (1,7,6) -10.3096 (1,8,5) -18.7908
(1,7,6): (1,6,6) 38.6902 (1,7,5) 10.3096 (1,7,7) 10.3249 (1,8,6) -59.3565
(1,7,7): (1,6,7) 25.7306 (1,7,6) -10.3249 (1,7,8) 3.28140 (1,8,7) -18.8038
(1,7,8): (1,6,8) 8.31755 (1,7,7) -3.28140 (1,7,9) 1.26013 (1,8,8) -6.44751
(1,7,9): (1,6,9) 3.09416 (1,7,8) -1.26013 (1,7,10) 0.445805 (1,8,9) -2.40217
(1,7,10): (1,6,10) 1.50569 (1,7,9) -0.445805 (1,8,10) -1.14593
(1,8,1): (1,7,1) 0.417645 (1,8,2) -0.612096 (1,9,1) 5.395042E-02
(1,8,2): (1,7,2) 0.877309 (1,8,1) 0.612096 (1,8,3) -1.89983 (1,9,2) 0.184725
(1,8,3): (1,7,3) 2.30361 (1,8,2) 1.89983 (1,8,4) -5.31720 (1,9,3) 0.747605
(1,8,4): (1,7,4) 6.41160 (1,8,3) 5.31720 (1,8,5) -15.2206 (1,9,4) 2.99816
(1,8,5): (1,7,5) 18.7908 (1,8,4) 15.2206 (1,8,6) -46.3296 (1,9,5) 11.8240
(1,8,6): (1,7,6) 59.3565 (1,8,5) 46.3296 (1,8,7) 46.3347 (1,9,6) 48.1280
(1,8,7): (1,7,7) 18.8038 (1,8,6) -46.3347 (1,8,8) 15.2105 (1,9,7) 11.8248
(1,8,8): (1,7,8) 6.44751 (1,8,7) -15.2105 (1,8,9) 5.25784 (1,9,8) 3.00009
(1,8,9): (1,7,9) 2.40217 (1,8,8) -5.25784 (1,8,10) 1.69316 (1,9,9) 0.756717
(1,8,10): (1,7,10) 1.14593 (1,8,9) -1.69316 (1,9,10) 0.225015
(1,9,1): (1,8,1) -5.395042E-02 (1,9,2) -0.480757 (1,10,1) 0.336953
(1,9,2): (1,8,2) -0.184725 (1,9,1) 0.480757 (1,9,3) -1.33028 (1,10,2) 0.716679
(1,9,3): (1,8,3) -0.747605 (1,9,2) 1.33028 (1,9,4) -3.01120 (1,10,3) 1.89301
(1,9,4): (1,8,4) -2.99816 (1,9,3) 3.01120 (1,9,5) -6.06461 (1,10,4) 5.25172
(1,9,5): (1,8,5) -11.8240 (1,9,4) 6.06461 (1,9,6) -10.6722 (1,10,5) 15.4081
(1,9,6): (1,8,6) -48.1280 (1,9,5) 10.6722 (1,9,7) 10.6762 (1,10,6) 25.7348
(1,9,7): (1,8,7) -11.8248 (1,9,6) -10.6762 (1,9,8) 6.05679 (1,10,7) 15.4169
(1,9,8): (1,8,8) -3.00009 (1,9,7) -6.05679 (1,9,9) 2.96063 (1,10,8) 5.27885
(1,9,9): (1,8,9) -0.756717 (1,9,8) -2.96063 (1,9,10) 1.15633 (1,10,9) 1.97087
(1,9,10): (1,8,10) -0.225015 (1,9,9) -1.15633 (1,10,10) 0.933892
(1,10,1): (1,9,1) -0.336953 (1,10,2) -0.101924 (1,11,1) 0.271225
(1,10,2): (1,9,2) -0.716679 (1,10,1) 0.101924 (1,10,3) -0.160516 (1,11,2) 0.480714
(1,10,3): (1,9,3) -1.89301 (1,10,2) 0.160516 (1,10,4) 0.275486 (1,11,3) 0.916876
(1,10,4): (1,9,4) -5.25172 (1,10,3) -0.275486 (1,10,5) 3.37588 (1,11,4) 1.26904
(1,10,5): (1,9,5) -15.4081 (1,10,4) -3.37588 (1,10,6) -1.72276 (1,11,5) -0.885854
(1,10,6): (1,9,6) -25.7348 (1,10,5) 1.72276 (1,10,7) 1.73429 (1,11,6) 0.773861
(1,10,7): (1,9,7) -15.4169 (1,10,6) -1.73429 (1,10,8) -3.36487 (1,11,7) -0.877963
(1,10,8): (1,9,8) -5.27885 (1,10,7) 3.36487 (1,10,9) -0.273924 (1,11,8) 1.29382
(1,10,9): (1,9,9) -1.97087 (1,10,8) 0.273924 (1,10,10) 0.127730 (1,11,9) 0.984058
(1,10,10): (1,9,10) -0.933892 (1,10,9) -0.127730 (1,11,10) 0.648406
(1,11,1): (1,10,1) -0.271225 (1,11,2) 0.106894 (1,12,1) 8.749766E-02
(1,11,2): (1,10,2) -0.480714 (1,11,1) -0.106894 (1,11,3) 0.273144 (1,12,2) 0.137168
(1,11,3): (1,10,3) -0.916876 (1,11,2) -0.273144 (1,11,4) 0.625473 (1,12,3) 0.191475
(1,11,4): (1,10,4) -1.26904 (1,11,3) -0.625473 (1,11,5) 1.18584 (1,12,4) 7.291673E-02
(1,11,5): (1,10,5) 0.885854 (1,11,4) -1.18584 (1,11,6) -5.569375E-02 (1,12,5) -0.535298
(1,11,6): (1,10,6) -0.773861 (1,11,5) 5.569375E-02 (1,11,7) 7.487512E-02 (1,12,6) -0.337275
(1,11,7): (1,10,7) 0.877963 (1,11,6) -7.487512E-02 (1,11,8) -1.15822 (1,12,7) -0.532943
(1,11,8): (1,10,8) -1.29382 (1,11,7) 1.15822 (1,11,9) -0.581579 (1,12,8) 8.113960E-02
(1,11,9): (1,10,9) -0.984058 (1,11,8) 0.581579 (1,11,10) -0.205523 (1,12,9) 0.214526
(1,11,10): (1,10,10) -0.648406 (1,11,9) 0.205523 (1,12,10) 0.191998
(1,12,1): (1,11,1) -8.749766E-02 (1,12,2) 0.156574 (1,13,1) -4.631356E-02
(1,12,2): (1,11,2) -0.137168 (1,12,1) -0.156574 (1,12,3) 0.327522 (1,13,2) -7.016940E-02
(1,12,3): (1,11,3) -0.191475 (1,12,2) -0.327522 (1,12,4) 0.506411 (1,13,3) -0.140809
(1,12,4): (1,11,4) -7.291673E-02 (1,12,3) -0.506411 (1,12,5) 0.573908 (1,13,4) -0.304072
(1,12,5): (1,11,5) 0.535298 (1,12,4) -0.573908 (1,12,6) 0.141619 (1,13,5) -0.556398
(1,12,6): (1,11,6) 0.337275 (1,12,5) -0.141619 (1,12,7) -0.120080 (1,13,6) -0.582009
(1,12,7): (1,11,7) 0.532943 (1,12,6) 0.120080 (1,12,8) -0.540545 (1,13,7) -0.558900
(1,12,8): (1,11,8) -8.113960E-02 (1,12,7) 0.540545 (1,12,9) -0.447714 (1,13,8) -0.310002
(1,12,9): (1,11,9) -0.214526 (1,12,8) 0.447714 (1,12,10) -0.228054 (1,13,9) -0.152406
(1,12,10): (1,11,10) -0.191998 (1,12,9) 0.228054 (1,13,10) -9.234475E-02
(1,13,1): (1,12,1) 4.631356E-02 (1,13,2) 0.132698 (1,14,1) -8.739337E-02
(1,13,2): (1,12,2) 7.016940E-02 (1,13,1) -0.132698 (1,13,3) 0.256753 (1,14,2) -0.125257
(1,13,3): (1,12,3) 0.140809 (1,13,2) -0.256753 (1,13,4) 0.342829 (1,14,3) -0.205977
(1,13,4): (1,12,4) 0.304072 (1,13,3) -0.342829 (1,13,5) 0.321541 (1,14,4) -0.329667
(1,13,5): (1,12,5) 0.556398 (1,13,4) -0.321541 (1,13,6) 0.116113 (1,14,5) -0.461111
(1,13,6): (1,12,6) 0.582009 (1,13,5) -0.116113 (1,13,7) -9.707090E-02 (1,14,6) -0.501695
(1,13,7): (1,12,7) 0.558900 (1,13,6) 9.707090E-02 (1,13,8) -0.291691 (1,14,7) -0.465252
(1,13,8): (1,12,8) 0.310002 (1,13,7) 0.291691 (1,13,9) -0.289907 (1,14,8) -0.340396
(1,13,9): (1,12,9) 0.152406 (1,13,8) 0.289907 (1,13,10) -0.167948 (1,14,9) -0.228912
(1,13,10): (1,12,10) 9.234475E-02 (1,13,9) 0.167948 (1,14,10) -0.170382
(1,14,1): (1,13,1) 8.739337E-02 (1,14,2) 9.483171E-02 (1,15,1) -5.959515E-02
(1,14,2): (1,13,2) 0.125257 (1,14,1) -9.483171E-02 (1,14,3) 0.175992 (1,15,2) -8.334027E-02
(1,14,3): (1,13,3) 0.205977 (1,14,2) -0.175992 (1,14,4) 0.219123 (1,15,3) -0.130276
(1,14,4): (1,13,4) 0.329667 (1,14,3) -0.219123 (1,14,5) 0.190274 (1,15,4) -0.194106
(1,14,5): (1,13,5) 0.461111 (1,14,4) -0.190274 (1,14,6) 7.567795E-02 (1,15,5) -0.253980
(1,14,6): (1,13,6) 0.501695 (1,14,5) -7.567795E-02 (1,14,7) -6.076923E-02 (1,15,6) -0.276359
(1,14,7): (1,13,7) 0.465252 (1,14,6) 6.076923E-02 (1,14,8) -0.167044 (1,15,7) -0.256812
(1,14,8): (1,13,8) 0.340396 (1,14,7) 0.167044 (1,14,9) -0.178478 (1,15,8) -0.201505
(1,14,9): (1,13,9) 0.228912 (1,14,8) 0.178478 (1,14,10) -0.109453 (1,15,9) -0.146122
(1,14,10): (1,13,10) 0.170382 (1,14,9) 0.109453 (1,15,10) -0.114128
(1,15,1): (1,14,1) 5.959515E-02 (1,15,2) 7.108389E-02
(1,15,2): (1,14,2) 8.334027E-02 (1,15,1) -7.108389E-02 (1,15,3) 0.129036
(1,15,3): (1,14,3) 0.130276 (1,15,2) -0.129036 (1,15,4) 0.155277
(1,15,4): (1,14,4) 0.194106 (1,15,3) -0.155277 (1,15,5) 0.130437
(1,15,5): (1,14,5) 0.253980 (1,15,4) -0.130437 (1,15,6) 5.334304E-02
(1,15,6): (1,14,6) 0.276359 (1,15,5) -5.334304E-02 (1,15,7) -4.126396E-02
(1,15,7): (1,14,7) 0.256812 (1,15,6) 4.126396E-02 (1,15,8) -0.111785
(1,15,8): (1,14,8) 0.201505 (1,15,7) 0.111785 (1,15,9) -0.123107
(1,15,9): (1,14,9) 0.146122 (1,15,8) 0.123107 (1,15,10) -7.747039E-02
(1,15,10): (1,14,10) 0.114128 (1,15,9) 7.747039E-02

 WEL PACKAGE (WEL-1) FLOW RATES   PERIOD      2   STEP       88
 ----------------------------------------------------------------------------------------
   NUMBER   CELLID                    RATE       NAME                                    
 ----------------------------------------------------------------------------------------
     1      (1,8,6)              -200.28740      WEL                                     
 ----------------------------------------------------------------------------------------




 API PACKAGE (MAR) FLOW RATES   PERIOD      2   STEP       88
 -----------------------------------------------
   NUMBER   CELLID                    RATE      
 -----------------------------------------------
     1      (1,6,5)               46.666667     
     2      (1,6,6)               46.666667     
     3      (1,6,7)               46.666667     
     4      (1,10,5)              20.095799     
     5      (1,10,6)              20.095799     
     6      (1,10,7)              20.095799     
 -----------------------------------------------



1
  HEAD IN LAYER   1 AT END OF TIME STEP  88 IN STRESS PERIOD    2
  ---------------------------------------------------------------------------

            1           2           3           4           5           6           7           8           9          10
 ........................................................................................................................
   1   3.3193E-02  4.5118E-02  6.7379E-02  9.5187E-02  0.1194      0.1293      0.1210      9.9395E-02  7.6305E-02  6.2086E-02
   2   4.4822E-02  6.2733E-02  9.7269E-02  0.1425      0.1838      0.2006      0.1858      0.1480      0.1092      8.6102E-02
   3   6.5053E-02  9.4912E-02  0.1555      0.2410      0.3258      0.3591      0.3286      0.2487      0.1725      0.1296    
   4   8.5529E-02  0.1312      0.2309      0.3898      0.5722      0.6356      0.5757      0.3993      0.2528      0.1778    
   5   9.0975E-02  0.1476      0.2869      0.5583      0.9754       1.073      0.9789      0.5680      0.3096      0.1979    
   6   6.4829E-02  0.1076      0.2353      0.6000       1.687       1.706       1.690      0.6070      0.2513      0.1425    
   7   9.3228E-03 -6.0277E-03 -5.3982E-02 -0.1800     -0.5127      -1.599     -0.5112     -0.1772     -5.0525E-02 -5.9182E-03
   8  -3.2403E-02 -9.3811E-02 -0.2856     -0.8329      -2.493      -8.665      -2.493     -0.8336     -0.2920     -0.1206    
   9  -2.6993E-02 -7.5199E-02 -0.2092     -0.5168      -1.156      -2.363      -1.156     -0.5172     -0.2146     -9.7855E-02
  10   6.6796E-03 -3.5060E-03 -1.9563E-02  7.9634E-03  0.3346      0.1679      0.3357      1.0161E-02 -1.7204E-02 -4.4248E-03
  11   3.3711E-02  4.4353E-02  7.1474E-02  0.1332      0.2489      0.2435      0.2508      0.1378      8.0417E-02  6.0029E-02
  12   4.2424E-02  5.7991E-02  9.0450E-02  0.1404      0.1967      0.2105      0.1988      0.1458      0.1017      7.9078E-02
  13   3.7812E-02  5.1014E-02  7.6495E-02  0.1104      0.1421      0.1535      0.1440      0.1152      8.6567E-02  6.9916E-02
  14   2.9106E-02  3.8552E-02  5.6053E-02  7.7797E-02  9.6642E-02  0.1041      9.8117E-02  8.1575E-02  6.3872E-02  5.2996E-02
  15   2.3163E-02  3.0250E-02  4.3098E-02  5.8536E-02  7.1487E-02  7.6781E-02  7.2686E-02  6.1588E-02  4.9353E-02  4.1644E-02

 HEAD WILL BE SAVED ON UNIT 1043 AT END OF TIME STEP   88, STRESS PERIOD    2


  VOLUME BUDGET FOR ENTIRE MODEL AT END OF TIME STEP   88, STRESS PERIOD   2
  ---------------------------------------------------------------------------------------------------

     CUMULATIVE VOLUME      L**3       RATES FOR THIS TIME STEP      L**3/T          PACKAGE NAME    
     ------------------                 ------------------------                     ----------------

           IN:                                      IN:
           ---                                      ---
              STO-SS =          27.0575                STO-SS =       1.3205E-02     STORAGE                          
              STO-SY =       63570.1807                STO-SY =          27.2567     STORAGE                          
                 WEL =           0.0000                   WEL =           0.0000     WEL-1                            
                 API =      195975.8794                   API =         200.2874     MAR                              
                 CHD =       2.8247E-08                   CHD =           0.0000     CHD_0                            

            TOTAL IN =      259573.1175              TOTAL IN =         227.5573

          OUT:                                     OUT:
          ----                                     ----
              STO-SS =          32.9460                STO-SS =       1.3996E-02     STORAGE                          
              STO-SY =       63564.2922                STO-SY =          27.2559     STORAGE                          
                 WEL =      195975.8793                   WEL =         200.2874     WEL-1                            
                 API =           0.0000                   API =           0.0000     MAR                              
                 CHD =       3.0388E-08                   CHD =           0.0000     CHD_0                            

           TOTAL OUT =      259573.1175             TOTAL OUT =         227.5573

            IN - OUT =       3.9446E-06              IN - OUT =       9.7196E-09

 PERCENT DISCREPANCY =           0.00     PERCENT DISCREPANCY =           0.00




         TIME SUMMARY AT END OF TIME STEP   88 IN STRESS PERIOD    2
                    SECONDS     MINUTES      HOURS       DAYS        YEARS
                    -----------------------------------------------------------
   TIME STEP LENGTH 8.64000E+05  14400.      240.00      10.000     2.73785E-02
 STRESS PERIOD TIME 7.60320E+07 1.26720E+06  21120.      880.00      2.4093    
         TOTAL TIME 7.61184E+07 1.26864E+06  21144.      881.00      2.4120    


end timestep


start timestep kper="2" kstp="89" mode="normal"

 UBDSV1 SAVING           STO-SS ON UNIT   1042 AT TIME STEP     89, STRESS PERIOD      2
 UBDSV1 SAVING           STO-SY ON UNIT   1042 AT TIME STEP     89, STRESS PERIOD      2
 UBDSV1 SAVING     FLOW-JA-FACE ON UNIT   1042 AT TIME STEP     89, STRESS PERIOD      2
 UBDSV06 SAVING       DATA-SPDIS IN MODEL GWF              PACKAGE NPF             CONNECTED TO MODEL GWF              PACKAGE NPF              ON UNIT   1042 AT TIME STEP     89, STRESS PERIOD      2
 UBDSV06 SAVING              WEL IN MODEL GWF              PACKAGE GWF             CONNECTED TO MODEL GWF              PACKAGE WEL-1            ON UNIT   1042 AT TIME STEP     89, STRESS PERIOD      2
 UBDSV06 SAVING              API IN MODEL GWF              PACKAGE GWF             CONNECTED TO MODEL GWF              PACKAGE MAR              ON UNIT   1042 AT TIME STEP     89, STRESS PERIOD      2
 UBDSV06 SAVING              CHD IN MODEL GWF              PACKAGE GWF             CONNECTED TO MODEL GWF              PACKAGE CHD_0            ON UNIT   1042 AT TIME STEP     89, STRESS PERIOD      2

    CALCULATED INTERCELL FLOW FOR PERIOD 2 STEP 89
(1,1,1): (1,1,2) 0.122041 (1,2,1) 0.118301
(1,1,2): (1,1,1) -0.122041 (1,1,3) 0.227975 (1,2,2) 0.178951
(1,1,3): (1,1,2) -0.227975 (1,1,4) 0.285045 (1,2,3) 0.303822
(1,1,4): (1,1,3) -0.285045 (1,1,5) 0.248236 (1,2,4) 0.482195
(1,1,5): (1,1,4) -0.248236 (1,1,6) 0.102345 (1,2,5) 0.658205
(1,1,6): (1,1,5) -0.102345 (1,1,7) -8.521234E-02 (1,2,6) 0.729266
(1,1,7): (1,1,6) 8.521234E-02 (1,1,8) -0.220994 (1,2,7) 0.663263
(1,1,8): (1,1,7) 0.220994 (1,1,9) -0.236026 (1,2,8) 0.495926
(1,1,9): (1,1,8) 0.236026 (1,1,10) -0.145130 (1,2,9) 0.335087
(1,1,10): (1,1,9) 0.145130 (1,2,10) 0.244535
(1,2,1): (1,1,1) -0.118301 (1,2,2) 0.182693 (1,3,1) 0.205447
(1,2,2): (1,1,2) -0.178951 (1,2,1) -0.182693 (1,2,3) 0.352907 (1,3,2) 0.326816
(1,2,3): (1,1,3) -0.303822 (1,2,2) -0.352907 (1,2,4) 0.463385 (1,3,3) 0.593141
(1,2,4): (1,1,4) -0.482195 (1,2,3) -0.463385 (1,2,5) 0.423854 (1,3,4) 1.01143
(1,2,5): (1,1,5) -0.658205 (1,2,4) -0.423854 (1,2,6) 0.173032 (1,3,5) 1.46927
(1,2,6): (1,1,6) -0.729266 (1,2,5) -0.173032 (1,2,7) -0.150854 (1,3,6) 1.64462
(1,2,7): (1,1,7) -0.663263 (1,2,6) 0.150854 (1,2,8) -0.387893 (1,3,7) 1.47765
(1,2,8): (1,1,8) -0.495926 (1,2,7) 0.387893 (1,2,9) -0.396711 (1,3,8) 1.03433
(1,2,9): (1,1,9) -0.335087 (1,2,8) 0.396711 (1,2,10) -0.235595 (1,3,9) 0.646528
(1,2,10): (1,1,10) -0.244535 (1,2,9) 0.235595 (1,3,10) 0.443435
(1,3,1): (1,2,1) -0.205447 (1,3,2) 0.304035 (1,4,1) 0.206796
(1,3,2): (1,2,2) -0.326816 (1,3,1) -0.304035 (1,3,3) 0.619299 (1,4,2) 0.367569
(1,3,3): (1,2,3) -0.593141 (1,3,2) -0.619299 (1,3,4) 0.881156 (1,4,3) 0.771831
(1,3,4): (1,2,4) -1.01143 (1,3,3) -0.881156 (1,3,5) 0.879213 (1,4,4) 1.54479
(1,3,5): (1,2,5) -1.46927 (1,3,4) -0.879213 (1,3,6) 0.346316 (1,4,5) 2.60318
(1,3,6): (1,2,6) -1.64462 (1,3,5) -0.346316 (1,3,7) -0.315809 (1,4,6) 2.93930
(1,3,7): (1,2,7) -1.47765 (1,3,6) 0.315809 (1,3,8) -0.828566 (1,4,7) 2.61088
(1,3,8): (1,2,8) -1.03433 (1,3,7) 0.828566 (1,3,9) -0.783599 (1,4,8) 1.56587
(1,3,9): (1,2,9) -0.646528 (1,3,8) 0.783599 (1,3,10) -0.438283 (1,4,9) 0.823266
(1,3,10): (1,2,10) -0.443435 (1,3,9) 0.438283 (1,4,10) 0.490034
(1,4,1): (1,3,1) -0.206796 (1,4,2) 0.464960 (1,5,1) 5.213572E-02
(1,4,2): (1,3,2) -0.367569 (1,4,1) -0.464960 (1,4,3) 1.02453 (1,5,2) 0.163121
(1,4,3): (1,3,3) -0.771831 (1,4,2) -1.02453 (1,4,4) 1.65489 (1,5,3) 0.569903
(1,4,4): (1,3,4) -1.54479 (1,4,3) -1.65489 (1,4,5) 1.93141 (1,5,4) 1.77258
(1,4,5): (1,3,5) -2.60318 (1,4,4) -1.93141 (1,4,6) 0.676029 (1,5,5) 4.41773
(1,4,6): (1,3,6) -2.93930 (1,4,5) -0.676029 (1,4,7) -0.637850 (1,5,6) 4.83972
(1,4,7): (1,3,7) -2.61088 (1,4,6) 0.637850 (1,4,8) -1.86681 (1,5,7) 4.41898
(1,4,8): (1,3,8) -1.56587 (1,4,7) 1.86681 (1,4,9) -1.52593 (1,5,8) 1.77510
(1,4,9): (1,3,9) -0.823266 (1,4,8) 1.52593 (1,4,10) -0.771352 (1,5,9) 0.578669
(1,4,10): (1,3,10) -0.490034 (1,4,9) 0.771352 (1,5,10) 0.199933
(1,5,1): (1,4,1) -5.213572E-02 (1,5,2) 0.576390 (1,6,1) -0.269871
(1,5,2): (1,4,2) -0.163121 (1,5,1) -0.576390 (1,5,3) 1.43461 (1,6,2) -0.414259
(1,5,3): (1,4,3) -0.569903 (1,5,2) -1.43461 (1,5,4) 2.86924 (1,6,3) -0.541011
(1,5,4): (1,4,4) -1.77258 (1,5,3) -2.86924 (1,5,5) 4.58003 (1,6,4) 0.428866
(1,5,5): (1,4,5) -4.41773 (1,5,4) -4.58003 (1,5,6) 1.08632 (1,6,5) 8.30581
(1,5,6): (1,4,6) -4.83972 (1,5,5) -1.08632 (1,5,7) -1.04676 (1,6,6) 7.38910
(1,5,7): (1,4,7) -4.41898 (1,5,6) 1.04676 (1,5,8) -4.51269 (1,6,7) 8.29618
(1,5,8): (1,4,8) -1.77510 (1,5,7) 4.51269 (1,5,9) -2.73249 (1,6,8) 0.400144
(1,5,9): (1,4,9) -0.578669 (1,5,8) 2.73249 (1,5,10) -1.15212 (1,6,9) -0.612456
(1,5,10): (1,4,10) -0.199933 (1,5,9) 1.15212 (1,6,10) -0.575141
(1,6,1): (1,5,1) 0.269871 (1,6,2) 0.431777 (1,7,1) -0.566189
(1,6,2): (1,5,2) 0.414259 (1,6,1) -0.431777 (1,6,3) 1.30684 (1,7,2) -1.15761
(1,6,3): (1,5,3) 0.541011 (1,6,2) -1.30684 (1,6,4) 3.86653 (1,7,3) -2.97305
(1,6,4): (1,5,4) -0.428866 (1,6,3) -3.86653 (1,6,5) 12.7095 (1,7,4) -8.28369
(1,6,5): (1,5,5) -8.30581 (1,6,4) -12.7095 (1,6,6) 0.218273 (1,7,5) -25.7289
(1,6,6): (1,5,6) -7.38910 (1,6,5) -0.218273 (1,6,7) -0.187940 (1,7,6) -38.7044
(1,6,7): (1,5,7) -8.29618 (1,6,6) 0.187940 (1,6,8) -12.6595 (1,7,7) -25.7477
(1,6,8): (1,5,8) -0.400144 (1,6,7) 12.6595 (1,6,9) -3.77244 (1,7,8) -8.33410
(1,6,9): (1,5,9) 0.612456 (1,6,8) 3.77244 (1,6,10) -1.11465 (1,7,9) -3.10887
(1,6,10): (1,5,10) 0.575141 (1,6,9) 1.11465 (1,7,10) -1.51885
(1,7,1): (1,6,1) 0.566189 (1,7,2) -0.155706 (1,8,1) -0.424024
(1,7,2): (1,6,2) 1.15761 (1,7,1) 0.155706 (1,7,3) -0.482287 (1,8,2) -0.885754
(1,7,3): (1,6,3) 2.97305 (1,7,2) 0.482287 (1,7,4) -1.25546 (1,8,3) -2.31567
(1,7,4): (1,6,4) 8.28369 (1,7,3) 1.25546 (1,7,5) -3.26468 (1,8,4) -6.42737
(1,7,5): (1,6,5) 25.7289 (1,7,4) 3.26468 (1,7,6) -10.3048 (1,8,5) -18.8069
(1,7,6): (1,6,6) 38.7044 (1,7,5) 10.3048 (1,7,7) 10.3204 (1,8,6) -59.3598
(1,7,7): (1,6,7) 25.7477 (1,7,6) -10.3204 (1,7,8) 3.27945 (1,8,7) -18.8203
(1,7,8): (1,6,8) 8.33410 (1,7,7) -3.27945 (1,7,9) 1.26140 (1,8,8) -6.46411
(1,7,9): (1,6,9) 3.10887 (1,7,8) -1.26140 (1,7,10) 0.447519 (1,8,9) -2.41595
(1,7,10): (1,6,10) 1.51885 (1,7,9) -0.447519 (1,8,10) -1.15758
(1,8,1): (1,7,1) 0.424024 (1,8,2) -0.616196 (1,9,1) 5.104804E-02
(1,8,2): (1,7,2) 0.885754 (1,8,1) 0.616196 (1,8,3) -1.90638 (1,9,2) 0.180120
(1,8,3): (1,7,3) 2.31567 (1,8,2) 1.90638 (1,8,4) -5.32220 (1,9,3) 0.739167
(1,8,4): (1,7,4) 6.42737 (1,8,3) 5.32220 (1,8,5) -15.2165 (1,9,4) 2.98259
(1,8,5): (1,7,5) 18.8069 (1,8,4) 15.2165 (1,8,6) -46.3016 (1,9,5) 11.7943
(1,8,6): (1,7,6) 59.3598 (1,8,5) 46.3016 (1,8,7) 46.3066 (1,9,6) 48.0618
(1,8,7): (1,7,7) 18.8203 (1,8,6) -46.3066 (1,8,8) 15.2059 (1,9,7) 11.7949
(1,8,8): (1,7,8) 6.46411 (1,8,7) -15.2059 (1,8,9) 5.26137 (1,9,8) 2.98419
(1,8,9): (1,7,9) 2.41595 (1,8,8) -5.26137 (1,8,10) 1.69686 (1,9,9) 0.747513
(1,8,10): (1,7,10) 1.15758 (1,8,9) -1.69686 (1,9,10) 0.218739
(1,9,1): (1,8,1) -5.104804E-02 (1,9,2) -0.486555 (1,10,1) 0.338348
(1,9,2): (1,8,2) -0.180120 (1,9,1) 0.486555 (1,9,3) -1.34062 (1,10,2) 0.717623
(1,9,3): (1,8,3) -0.739167 (1,9,2) 1.34062 (1,9,4) -3.02298 (1,10,3) 1.89216
(1,9,4): (1,8,4) -2.98259 (1,9,3) 3.02298 (1,9,5) -6.07240 (1,10,4) 5.24526
(1,9,5): (1,8,5) -11.7943 (1,9,4) 6.07240 (1,9,6) -10.6671 (1,10,5) 15.3847
(1,9,6): (1,8,6) -48.0618 (1,9,5) 10.6671 (1,9,7) 10.6709 (1,10,6) 25.6992
(1,9,7): (1,8,7) -11.7949 (1,9,6) -10.6709 (1,9,8) 6.06386 (1,10,7) 15.3936
(1,9,8): (1,8,8) -2.98419 (1,9,7) -6.06386 (1,9,9) 2.97052 (1,10,8) 5.27263
(1,9,9): (1,8,9) -0.747513 (1,9,8) -2.97052 (1,9,10) 1.16291 (1,10,9) 1.97042
(1,9,10): (1,8,10) -0.218739 (1,9,9) -1.16291 (1,10,10) 0.935265
(1,10,1): (1,9,1) -0.338348 (1,10,2) -0.108154 (1,11,1) 0.275701
(1,10,2): (1,9,2) -0.717623 (1,10,1) 0.108154 (1,10,3) -0.172509 (1,11,2) 0.486433
(1,10,3): (1,9,3) -1.89216 (1,10,2) 0.172509 (1,10,4) 0.258661 (1,11,3) 0.924881
(1,10,4): (1,9,4) -5.24526 (1,10,3) -0.258661 (1,10,5) 3.35292 (1,11,4) 1.28074
(1,10,5): (1,9,5) -15.3847 (1,10,4) -3.35292 (1,10,6) -1.72730 (1,11,5) -0.864983
(1,10,6): (1,9,6) -25.6992 (1,10,5) 1.72730 (1,10,7) 1.73873 (1,11,6) 0.794715
(1,10,7): (1,9,7) -15.3936 (1,10,6) -1.73873 (1,10,8) -3.34247 (1,11,7) -0.856869
(1,10,8): (1,9,8) -5.27263 (1,10,7) 3.34247 (1,10,9) -0.258776 (1,11,8) 1.30610
(1,10,9): (1,9,9) -1.97042 (1,10,8) 0.258776 (1,10,10) 0.136059 (1,11,9) 0.993271
(1,10,10): (1,9,10) -0.935265 (1,10,9) -0.136059 (1,11,10) 0.656310
(1,11,1): (1,10,1) -0.275701 (1,11,2) 0.101893 (1,12,1) 9.249785E-02
(1,11,2): (1,10,2) -0.486433 (1,11,1) -0.101893 (1,11,3) 0.263385 (1,12,2) 0.144190
(1,11,3): (1,10,3) -0.924881 (1,11,2) -0.263385 (1,11,4) 0.612235 (1,12,3) 0.202359
(1,11,4): (1,10,4) -1.28074 (1,11,3) -0.612235 (1,11,5) 1.17256 (1,12,4) 8.909055E-02
(1,11,5): (1,10,5) 0.864983 (1,11,4) -1.17256 (1,11,6) -6.015539E-02 (1,12,5) -0.513186
(1,11,6): (1,10,6) -0.794715 (1,11,5) 6.015539E-02 (1,11,7) 7.946102E-02 (1,12,6) -0.313431
(1,11,7): (1,10,7) 0.856869 (1,11,6) -7.946102E-02 (1,11,8) -1.14514 (1,12,7) -0.510616
(1,11,8): (1,10,8) -1.30610 (1,11,7) 1.14514 (1,11,9) -0.569400 (1,12,8) 9.790972E-02
(1,11,9): (1,10,9) -0.993271 (1,11,8) 0.569400 (1,11,10) -0.198460 (1,12,9) 0.226763
(1,11,10): (1,10,10) -0.656310 (1,11,9) 0.198460 (1,12,10) 0.201713
(1,12,1): (1,11,1) -9.249785E-02 (1,12,2) 0.153590 (1,13,1) -4.278781E-02
(1,12,2): (1,11,2) -0.144190 (1,12,1) -0.153590 (1,12,3) 0.321621 (1,13,2) -6.483333E-02
(1,12,3): (1,11,3) -0.202359 (1,12,2) -0.321621 (1,12,4) 0.498511 (1,13,3) -0.132042
(1,12,4): (1,11,4) -8.909055E-02 (1,12,3) -0.498511 (1,12,5) 0.566567 (1,13,4) -0.290860
(1,12,5): (1,11,5) 0.513186 (1,12,4) -0.566567 (1,12,6) 0.138924 (1,13,5) -0.539037
(1,12,6): (1,11,6) 0.313431 (1,12,5) -0.138924 (1,12,7) -0.117047 (1,13,6) -0.563098
(1,12,7): (1,11,7) 0.510616 (1,12,6) 0.117047 (1,12,8) -0.533020 (1,13,7) -0.541418
(1,12,8): (1,11,8) -9.790972E-02 (1,12,7) 0.533020 (1,12,9) -0.440115 (1,13,8) -0.296409
(1,12,9): (1,11,9) -0.226763 (1,12,8) 0.440115 (1,12,10) -0.223508 (1,13,9) -0.142676
(1,12,10): (1,11,10) -0.201713 (1,12,9) 0.223508 (1,13,10) -8.492221E-02
(1,13,1): (1,12,1) 4.278781E-02 (1,13,2) 0.131526 (1,14,1) -8.574848E-02
(1,13,2): (1,12,2) 6.483333E-02 (1,13,1) -0.131526 (1,13,3) 0.254288 (1,14,2) -0.122455
(1,13,3): (1,12,3) 0.132042 (1,13,2) -0.254288 (1,13,4) 0.339374 (1,14,3) -0.200981
(1,13,4): (1,12,4) 0.290860 (1,13,3) -0.339374 (1,13,5) 0.318325 (1,14,4) -0.321872
(1,13,5): (1,12,5) 0.539037 (1,13,4) -0.318325 (1,13,6) 0.114958 (1,14,5) -0.450833
(1,13,6): (1,12,6) 0.563098 (1,13,5) -0.114958 (1,13,7) -9.545762E-02 (1,14,6) -0.490448
(1,13,7): (1,12,7) 0.541418 (1,13,6) 9.545762E-02 (1,13,8) -0.288030 (1,14,7) -0.454944
(1,13,8): (1,12,8) 0.296409 (1,13,7) 0.288030 (1,13,9) -0.286169 (1,14,8) -0.332460
(1,13,9): (1,12,9) 0.142676 (1,13,8) 0.286169 (1,13,10) -0.165708 (1,14,9) -0.223460
(1,13,10): (1,12,10) 8.492221E-02 (1,13,9) 0.165708 (1,14,10) -0.166450
(1,14,1): (1,13,1) 8.574848E-02 (1,14,2) 9.481559E-02 (1,15,1) -5.913343E-02
(1,14,2): (1,13,2) 0.122455 (1,14,1) -9.481559E-02 (1,14,3) 0.175721 (1,15,2) -8.236532E-02
(1,14,3): (1,13,3) 0.200981 (1,14,2) -0.175721 (1,14,4) 0.218461 (1,15,3) -0.128321
(1,14,4): (1,13,4) 0.321872 (1,14,3) -0.218461 (1,14,5) 0.189529 (1,15,4) -0.190903
(1,14,5): (1,13,5) 0.450833 (1,14,4) -0.189529 (1,14,6) 7.548579E-02 (1,15,5) -0.249683
(1,14,6): (1,13,6) 0.490448 (1,14,5) -7.548579E-02 (1,14,7) -6.008867E-02 (1,15,6) -0.271634
(1,14,7): (1,13,7) 0.454944 (1,14,6) 6.008867E-02 (1,14,8) -0.165743 (1,15,7) -0.252524
(1,14,8): (1,13,8) 0.332460 (1,14,7) 0.165743 (1,14,9) -0.177218 (1,15,8) -0.198285
(1,14,9): (1,13,9) 0.223460 (1,14,8) 0.177218 (1,14,10) -0.108731 (1,15,9) -0.144038
(1,14,10): (1,13,10) 0.166450 (1,14,9) 0.108731 (1,15,10) -0.112743
(1,15,1): (1,14,1) 5.913343E-02 (1,15,2) 7.158084E-02
(1,15,2): (1,14,2) 8.236532E-02 (1,15,1) -7.158084E-02 (1,15,3) 0.129744
(1,15,3): (1,14,3) 0.128321 (1,15,2) -0.129744 (1,15,4) 0.155862
(1,15,4): (1,14,4) 0.190903 (1,15,3) -0.155862 (1,15,5) 0.130783
(1,15,5): (1,14,5) 0.249683 (1,15,4) -0.130783 (1,15,6) 5.357740E-02
(1,15,6): (1,14,6) 0.271634 (1,15,5) -5.357740E-02 (1,15,7) -4.101811E-02
(1,15,7): (1,14,7) 0.252524 (1,15,6) 4.101811E-02 (1,15,8) -0.111550
(1,15,8): (1,14,8) 0.198285 (1,15,7) 0.111550 (1,15,9) -0.122982
(1,15,9): (1,14,9) 0.144038 (1,15,8) 0.122982 (1,15,10) -7.744671E-02
(1,15,10): (1,14,10) 0.112743 (1,15,9) 7.744671E-02

 WEL PACKAGE (WEL-1) FLOW RATES   PERIOD      2   STEP       89
 ----------------------------------------------------------------------------------------
   NUMBER   CELLID                    RATE       NAME                                    
 ----------------------------------------------------------------------------------------
     1      (1,8,6)              -200.16549      WEL                                     
 ----------------------------------------------------------------------------------------




 API PACKAGE (MAR) FLOW RATES   PERIOD      2   STEP       89
 -----------------------------------------------
   NUMBER   CELLID                    RATE      
 -----------------------------------------------
     1      (1,6,5)               46.666667     
     2      (1,6,6)               46.666667     
     3      (1,6,7)               46.666667     
     4      (1,10,5)              20.055164     
     5      (1,10,6)              20.055164     
     6      (1,10,7)              20.055164     
 -----------------------------------------------



1
  HEAD IN LAYER   1 AT END OF TIME STEP  89 IN STRESS PERIOD    2
  ---------------------------------------------------------------------------

            1           2           3           4           5           6           7           8           9          10
 ........................................................................................................................
   1   3.4394E-02  4.6542E-02  6.9183E-02  9.7412E-02  0.1219      0.1320      0.1236      0.1018      7.8434E-02  6.4034E-02
   2   4.6170E-02  6.4323E-02  9.9266E-02  0.1449      0.1866      0.2035      0.1887      0.1507      0.1116      8.8273E-02
   3   6.6579E-02  9.6691E-02  0.1577      0.2437      0.3288      0.3622      0.3317      0.2515      0.1751      0.1320    
   4   8.7080E-02  0.1330      0.2331      0.3923      0.5750      0.6385      0.5786      0.4021      0.2554      0.1802    
   5   9.2246E-02  0.1490      0.2885      0.5602      0.9774       1.075      0.9810      0.5700      0.3115      0.1998    
   6   6.5506E-02  0.1082      0.2359      0.6006       1.688       1.707       1.691      0.6077      0.2521      0.1434    
   7   9.2551E-03 -6.3011E-03 -5.4560E-02 -0.1808     -0.5133      -1.600     -0.5118     -0.1779     -5.1130E-02 -6.3492E-03
   8  -3.3108E-02 -9.4932E-02 -0.2874     -0.8354      -2.496      -8.666      -2.495     -0.8360     -0.2940     -0.1222    
   9  -2.7989E-02 -7.6781E-02 -0.2119     -0.5207      -1.161      -2.368      -1.161     -0.5212     -0.2176     -0.1001    
  10   5.8261E-03 -4.9830E-03 -2.2242E-02  3.6143E-03  0.3283      0.1610      0.3293      5.7491E-03 -2.0114E-02 -6.4989E-03
  11   3.3305E-02  4.3450E-02  6.9606E-02  0.1300      0.2445      0.2386      0.2464      0.1346      7.8440E-02  5.8749E-02
  12   4.2515E-02  5.7786E-02  8.9662E-02  0.1388      0.1944      0.2080      0.1966      0.1443      0.1009      7.8763E-02
  13   3.8255E-02  5.1340E-02  7.6576E-02  0.1101      0.1415      0.1529      0.1435      0.1151      8.6765E-02  7.0337E-02
  14   2.9712E-02  3.9157E-02  5.6630E-02  7.8307E-02  9.7077E-02  0.1045      9.8601E-02  8.2189E-02  6.4611E-02  5.3808E-02
  15   2.3817E-02  3.0953E-02  4.3870E-02  5.9365E-02  7.2349E-02  7.7665E-02  7.3595E-02  6.2522E-02  5.0300E-02  4.2594E-02

 HEAD WILL BE SAVED ON UNIT 1043 AT END OF TIME STEP   89, STRESS PERIOD    2


  VOLUME BUDGET FOR ENTIRE MODEL AT END OF TIME STEP   89, STRESS PERIOD   2
  ---------------------------------------------------------------------------------------------------

     CUMULATIVE VOLUME      L**3       RATES FOR THIS TIME STEP      L**3/T          PACKAGE NAME    
     ------------------                 ------------------------                     ----------------

           IN:                                      IN:
           ---                                      ---
              STO-SS =          27.1884                STO-SS =       1.3094E-02     STORAGE                          
              STO-SY =       63840.4322                STO-SY =          27.0252     STORAGE                          
                 WEL =           0.0000                   WEL =           0.0000     WEL-1                            
                 API =      197977.5343                   API =         200.1655     MAR                              
                 CHD =       2.8247E-08                   CHD =           0.0000     CHD_0                            

            TOTAL IN =      261845.1549              TOTAL IN =         227.2037

          OUT:                                     OUT:
          ----                                     ----
              STO-SS =          33.0848                STO-SS =       1.3878E-02     STORAGE                          
              STO-SY =       63834.5359                STO-SY =          27.0244     STORAGE                          
                 WEL =      197977.5342                   WEL =         200.1655     WEL-1                            
                 API =           0.0000                   API =           0.0000     MAR                              
                 CHD =       3.0388E-08                   CHD =           0.0000     CHD_0                            

           TOTAL OUT =      261845.1549             TOTAL OUT =         227.2037

            IN - OUT =       4.0405E-06              IN - OUT =       9.5964E-09

 PERCENT DISCREPANCY =           0.00     PERCENT DISCREPANCY =           0.00




         TIME SUMMARY AT END OF TIME STEP   89 IN STRESS PERIOD    2
                    SECONDS     MINUTES      HOURS       DAYS        YEARS
                    -----------------------------------------------------------
   TIME STEP LENGTH 8.64000E+05  14400.      240.00      10.000     2.73785E-02
 STRESS PERIOD TIME 7.68960E+07 1.28160E+06  21360.      890.00      2.4367    
         TOTAL TIME 7.69824E+07 1.28304E+06  21384.      891.00      2.4394    


end timestep


start timestep kper="2" kstp="90" mode="normal"

 UBDSV1 SAVING           STO-SS ON UNIT   1042 AT TIME STEP     90, STRESS PERIOD      2
 UBDSV1 SAVING           STO-SY ON UNIT   1042 AT TIME STEP     90, STRESS PERIOD      2
 UBDSV1 SAVING     FLOW-JA-FACE ON UNIT   1042 AT TIME STEP     90, STRESS PERIOD      2
 UBDSV06 SAVING       DATA-SPDIS IN MODEL GWF              PACKAGE NPF             CONNECTED TO MODEL GWF              PACKAGE NPF              ON UNIT   1042 AT TIME STEP     90, STRESS PERIOD      2
 UBDSV06 SAVING              WEL IN MODEL GWF              PACKAGE GWF             CONNECTED TO MODEL GWF              PACKAGE WEL-1            ON UNIT   1042 AT TIME STEP     90, STRESS PERIOD      2
 UBDSV06 SAVING              API IN MODEL GWF              PACKAGE GWF             CONNECTED TO MODEL GWF              PACKAGE MAR              ON UNIT   1042 AT TIME STEP     90, STRESS PERIOD      2
 UBDSV06 SAVING              CHD IN MODEL GWF              PACKAGE GWF             CONNECTED TO MODEL GWF              PACKAGE CHD_0            ON UNIT   1042 AT TIME STEP     90, STRESS PERIOD      2

    CALCULATED INTERCELL FLOW FOR PERIOD 2 STEP 90
(1,1,1): (1,1,2) 0.124272 (1,2,1) 0.119749
(1,1,2): (1,1,1) -0.124272 (1,1,3) 0.231800 (1,2,2) 0.180584
(1,1,3): (1,1,2) -0.231800 (1,1,4) 0.289321 (1,2,3) 0.305756
(1,1,4): (1,1,3) -0.289321 (1,1,5) 0.251645 (1,2,4) 0.484439
(1,1,5): (1,1,4) -0.251645 (1,1,6) 0.103851 (1,2,5) 0.660686
(1,1,6): (1,1,5) -0.103851 (1,1,7) -8.592721E-02 (1,2,6) 0.731866
(1,1,7): (1,1,6) 8.592721E-02 (1,1,8) -0.223352 (1,2,7) 0.665847
(1,1,8): (1,1,7) 0.223352 (1,1,9) -0.238794 (1,2,8) 0.498399
(1,1,9): (1,1,8) 0.238794 (1,1,10) -0.146952 (1,2,9) 0.337414
(1,1,10): (1,1,9) 0.146952 (1,2,10) 0.246756
(1,2,1): (1,1,1) -0.119749 (1,2,2) 0.185110 (1,3,1) 0.207181
(1,2,2): (1,1,2) -0.180584 (1,2,1) -0.185110 (1,2,3) 0.357033 (1,3,2) 0.328682
(1,2,3): (1,1,3) -0.305756 (1,2,2) -0.357033 (1,2,4) 0.467977 (1,3,3) 0.595197
(1,2,4): (1,1,4) -0.484439 (1,2,3) -0.467977 (1,2,5) 0.427501 (1,3,4) 1.01365
(1,2,5): (1,1,5) -0.660686 (1,2,4) -0.427501 (1,2,6) 0.174656 (1,3,5) 1.47160
(1,2,6): (1,1,6) -0.731866 (1,2,5) -0.174656 (1,2,7) -0.151583 (1,3,6) 1.64703
(1,2,7): (1,1,7) -0.665847 (1,2,6) 0.151583 (1,2,8) -0.390361 (1,3,7) 1.48011
(1,2,8): (1,1,8) -0.498399 (1,2,7) 0.390361 (1,2,9) -0.399627 (1,3,8) 1.03683
(1,2,9): (1,1,9) -0.337414 (1,2,8) 0.399627 (1,2,10) -0.237522 (1,3,9) 0.649044
(1,2,10): (1,1,10) -0.246756 (1,2,9) 0.237522 (1,3,10) 0.445941
(1,3,1): (1,2,1) -0.207181 (1,3,2) 0.306584 (1,4,1) 0.206985
(1,3,2): (1,2,2) -0.328682 (1,3,1) -0.306584 (1,3,3) 0.623622 (1,4,2) 0.367489
(1,3,3): (1,2,3) -0.595197 (1,3,2) -0.623622 (1,3,4) 0.885923 (1,4,3) 0.771260
(1,3,4): (1,2,4) -1.01365 (1,3,3) -0.885923 (1,3,5) 0.882974 (1,4,4) 1.54363
(1,3,5): (1,2,5) -1.47160 (1,3,4) -0.882974 (1,3,6) 0.348026 (1,4,5) 2.60153
(1,3,6): (1,2,6) -1.64703 (1,3,5) -0.348026 (1,3,7) -0.316491 (1,4,6) 2.93753
(1,3,7): (1,2,7) -1.48011 (1,3,6) 0.316491 (1,3,8) -0.830994 (1,4,7) 2.60928
(1,3,8): (1,2,8) -1.03683 (1,3,7) 0.830994 (1,3,9) -0.786506 (1,4,8) 1.56477
(1,3,9): (1,2,9) -0.649044 (1,3,8) 0.786506 (1,3,10) -0.440219 (1,4,9) 0.822712
(1,3,10): (1,2,10) -0.445941 (1,3,9) 0.440219 (1,4,10) 0.489825
(1,4,1): (1,3,1) -0.206985 (1,4,2) 0.467242 (1,5,1) 4.927034E-02
(1,4,2): (1,3,2) -0.367489 (1,4,1) -0.467242 (1,4,3) 1.02838 (1,5,2) 0.159341
(1,4,3): (1,3,3) -0.771260 (1,4,2) -1.02838 (1,4,4) 1.65911 (1,5,3) 0.564605
(1,4,4): (1,3,4) -1.54363 (1,4,3) -1.65911 (1,4,5) 1.93473 (1,5,4) 1.76568
(1,4,5): (1,3,5) -2.60153 (1,4,4) -1.93473 (1,4,6) 0.677637 (1,5,5) 4.40955
(1,4,6): (1,3,6) -2.93753 (1,4,5) -0.677637 (1,4,7) -0.638381 (1,5,6) 4.83128
(1,4,7): (1,3,7) -2.60928 (1,4,6) 0.638381 (1,4,8) -1.86877 (1,5,7) 4.41065
(1,4,8): (1,3,8) -1.56477 (1,4,7) 1.86877 (1,4,9) -1.52832 (1,5,8) 1.76781
(1,4,9): (1,3,9) -0.822712 (1,4,8) 1.52832 (1,4,10) -0.772950 (1,5,9) 0.572538
(1,4,10): (1,3,10) -0.489825 (1,4,9) 0.772950 (1,5,10) 0.194612
(1,5,1): (1,4,1) -4.927034E-02 (1,5,2) 0.577759 (1,6,1) -0.275896
(1,5,2): (1,4,2) -0.159341 (1,5,1) -0.577759 (1,5,3) 1.43696 (1,6,2) -0.421829
(1,5,3): (1,4,3) -0.564605 (1,5,2) -1.43696 (1,5,4) 2.87194 (1,6,3) -0.551049
(1,5,4): (1,4,4) -1.76568 (1,5,3) -2.87194 (1,5,5) 4.58228 (1,6,4) 0.416559
(1,5,5): (1,4,5) -4.40955 (1,5,4) -4.58228 (1,5,6) 1.08771 (1,6,5) 8.29175
(1,5,6): (1,4,6) -4.83128 (1,5,5) -1.08771 (1,5,7) -1.04721 (1,6,6) 7.37530
(1,5,7): (1,4,7) -4.41065 (1,5,6) 1.04721 (1,5,8) -4.51381 (1,6,7) 8.28178
(1,5,8): (1,4,8) -1.76781 (1,5,7) 4.51381 (1,5,9) -2.73380 (1,6,8) 0.386994
(1,5,9): (1,4,9) -0.572538 (1,5,8) 2.73380 (1,5,10) -1.15293 (1,6,9) -0.624184
(1,5,10): (1,4,10) -0.194612 (1,5,9) 1.15293 (1,6,10) -0.585676
(1,6,1): (1,5,1) 0.275896 (1,6,2) 0.431607 (1,7,1) -0.573684
(1,6,2): (1,5,2) 0.421829 (1,6,1) -0.431607 (1,6,3) 1.30671 (1,7,2) -1.16701
(1,6,3): (1,5,3) 0.551049 (1,6,2) -1.30671 (1,6,4) 3.86690 (1,7,3) -2.98550
(1,6,4): (1,5,4) -0.416559 (1,6,3) -3.86690 (1,6,5) 12.7108 (1,7,4) -8.29892
(1,6,5): (1,5,5) -8.29175 (1,6,4) -12.7108 (1,6,6) 0.219788 (1,7,5) -25.7452
(1,6,6): (1,5,6) -7.37530 (1,6,5) -0.219788 (1,6,7) -0.188847 (1,7,6) -38.7184
(1,6,7): (1,5,7) -8.28178 (1,6,6) 0.188847 (1,6,8) -12.6602 (1,7,7) -25.7645
(1,6,8): (1,5,8) -0.386994 (1,6,7) 12.6602 (1,6,9) -3.77227 (1,7,8) -8.35036
(1,6,9): (1,5,9) 0.624184 (1,6,8) 3.77227 (1,6,10) -1.11426 (1,7,9) -3.12338
(1,6,10): (1,5,10) 0.585676 (1,6,9) 1.11426 (1,7,10) -1.53188
(1,7,1): (1,6,1) 0.573684 (1,7,2) -0.157717 (1,8,1) -0.430388
(1,7,2): (1,6,2) 1.16701 (1,7,1) 0.157717 (1,7,3) -0.485237 (1,8,2) -0.894134
(1,7,3): (1,6,3) 2.98550 (1,7,2) 0.485237 (1,7,4) -1.25715 (1,8,3) -2.32756
(1,7,4): (1,6,4) 8.29892 (1,7,3) 1.25715 (1,7,5) -3.26274 (1,8,4) -6.44287
(1,7,5): (1,6,5) 25.7452 (1,7,4) 3.26274 (1,7,6) -10.3001 (1,8,5) -18.8228
(1,7,6): (1,6,6) 38.7184 (1,7,5) 10.3001 (1,7,7) 10.3159 (1,8,6) -59.3632
(1,7,7): (1,6,7) 25.7645 (1,7,6) -10.3159 (1,7,8) 3.27751 (1,8,7) -18.8365
(1,7,8): (1,6,8) 8.35036 (1,7,7) -3.27751 (1,7,9) 1.26259 (1,8,8) -6.48045
(1,7,9): (1,6,9) 3.12338 (1,7,8) -1.26259 (1,7,10) 0.449158 (1,8,9) -2.42957
(1,7,10): (1,6,10) 1.53188 (1,7,9) -0.449158 (1,8,10) -1.16914
(1,8,1): (1,7,1) 0.430388 (1,8,2) -0.620197 (1,9,1) 4.810452E-02
(1,8,2): (1,7,2) 0.894134 (1,8,1) 0.620197 (1,8,3) -1.91275 (1,9,2) 0.175500
(1,8,3): (1,7,3) 2.32756 (1,8,2) 1.91275 (1,8,4) -5.32703 (1,9,3) 0.730785
(1,8,4): (1,7,4) 6.44287 (1,8,3) 5.32703 (1,8,5) -15.2125 (1,9,4) 2.96724
(1,8,5): (1,7,5) 18.8228 (1,8,4) 15.2125 (1,8,6) -46.2742 (1,9,5) 11.7652
(1,8,6): (1,7,6) 59.3632 (1,8,5) 46.2742 (1,8,7) 46.2791 (1,9,6) 47.9969
(1,8,7): (1,7,7) 18.8365 (1,8,6) -46.2791 (1,8,8) 15.2013 (1,9,7) 11.7656
(1,8,8): (1,7,8) 6.48045 (1,8,7) -15.2013 (1,8,9) 5.26472 (1,9,8) 2.96850
(1,8,9): (1,7,9) 2.42957 (1,8,8) -5.26472 (1,8,10) 1.70042 (1,9,9) 0.738352
(1,8,10): (1,7,10) 1.16914 (1,8,9) -1.70042 (1,9,10) 0.212438
(1,9,1): (1,8,1) -4.810452E-02 (1,9,2) -0.492228 (1,10,1) 0.339661
(1,9,2): (1,8,2) -0.175500 (1,9,1) 0.492228 (1,9,3) -1.35071 (1,10,2) 0.718470
(1,9,3): (1,8,3) -0.730785 (1,9,2) 1.35071 (1,9,4) -3.03443 (1,10,3) 1.89122
(1,9,4): (1,8,4) -2.96724 (1,9,3) 3.03443 (1,9,5) -6.07995 (1,10,4) 5.23879
(1,9,5): (1,8,5) -11.7652 (1,9,4) 6.07995 (1,9,6) -10.6620 (1,10,5) 15.3615
(1,9,6): (1,8,6) -47.9969 (1,9,5) 10.6620 (1,9,7) 10.6656 (1,10,6) 25.6640
(1,9,7): (1,8,7) -11.7656 (1,9,6) -10.6656 (1,9,8) 6.07067 (1,10,7) 15.3706
(1,9,8): (1,8,8) -2.96850 (1,9,7) -6.07067 (1,9,9) 2.98007 (1,10,8) 5.26638
(1,9,9): (1,8,9) -0.738352 (1,9,8) -2.98007 (1,9,10) 1.16928 (1,10,9) 1.96984
(1,9,10): (1,8,10) -0.212438 (1,9,9) -1.16928 (1,10,10) 0.936499
(1,10,1): (1,9,1) -0.339661 (1,10,2) -0.114274 (1,11,1) 0.280109
(1,10,2): (1,9,2) -0.718470 (1,10,1) 0.114274 (1,10,3) -0.184252 (1,11,2) 0.492028
(1,10,3): (1,9,3) -1.89122 (1,10,2) 0.184252 (1,10,4) 0.242241 (1,11,3) 0.932657
(1,10,4): (1,9,4) -5.23879 (1,10,3) -0.242241 (1,10,5) 3.33053 (1,11,4) 1.29206
(1,10,5): (1,9,5) -15.3615 (1,10,4) -3.33053 (1,10,6) -1.73172 (1,11,5) -0.844743
(1,10,6): (1,9,6) -25.6640 (1,10,5) 1.73172 (1,10,7) 1.74302 (1,11,6) 0.814922
(1,10,7): (1,9,7) -15.3706 (1,10,6) -1.74302 (1,10,8) -3.32065 (1,11,7) -0.836406
(1,10,8): (1,9,8) -5.26638 (1,10,7) 3.32065 (1,10,9) -0.244050 (1,11,8) 1.31800
(1,10,9): (1,9,9) -1.96984 (1,10,8) 0.244050 (1,10,10) 0.144159 (1,11,9) 1.00224
(1,10,10): (1,9,10) -0.936499 (1,10,9) -0.144159 (1,11,10) 0.664040
(1,11,1): (1,10,1) -0.280109 (1,11,2) 9.694623E-02 (1,12,1) 9.749608E-02
(1,11,2): (1,10,2) -0.492028 (1,11,1) -9.694623E-02 (1,11,3) 0.253773 (1,12,2) 0.151152
(1,11,3): (1,10,3) -0.932657 (1,11,2) -0.253773 (1,11,4) 0.599256 (1,12,3) 0.213066
(1,11,4): (1,10,4) -1.29206 (1,11,3) -0.599256 (1,11,5) 1.15957 (1,12,4) 0.104921
(1,11,5): (1,10,5) 0.844743 (1,11,4) -1.15957 (1,11,6) -6.451584E-02 (1,12,5) -0.491601
(1,11,6): (1,10,6) -0.814922 (1,11,5) 6.451584E-02 (1,11,7) 8.392848E-02 (1,12,6) -0.290169
(1,11,7): (1,10,7) 0.836406 (1,11,6) -8.392848E-02 (1,11,8) -1.13237 (1,12,7) -0.488812
(1,11,8): (1,10,8) -1.31800 (1,11,7) 1.13237 (1,11,9) -0.557510 (1,12,8) 0.114343
(1,11,9): (1,10,9) -1.00224 (1,11,8) 0.557510 (1,11,10) -0.191556 (1,12,9) 0.238823
(1,11,10): (1,10,10) -0.664040 (1,11,9) 0.191556 (1,12,10) 0.211345
(1,12,1): (1,11,1) -9.749608E-02 (1,12,2) 0.150602 (1,13,1) -3.919528E-02
(1,12,2): (1,11,2) -0.151152 (1,12,1) -0.150602 (1,12,3) 0.315749 (1,13,2) -5.946264E-02
(1,12,3): (1,11,3) -0.213066 (1,12,2) -0.315749 (1,12,4) 0.490701 (1,13,3) -0.123312
(1,12,4): (1,11,4) -0.104921 (1,12,3) -0.490701 (1,12,5) 0.559344 (1,13,4) -0.277794
(1,12,5): (1,11,5) 0.491601 (1,12,4) -0.559344 (1,12,6) 0.136275 (1,13,5) -0.521934
(1,12,6): (1,11,6) 0.290169 (1,12,5) -0.136275 (1,12,7) -0.114074 (1,13,6) -0.544485
(1,12,7): (1,11,7) 0.488812 (1,12,6) 0.114074 (1,12,8) -0.525636 (1,13,7) -0.524186
(1,12,8): (1,11,8) -0.114343 (1,12,7) 0.525636 (1,12,9) -0.432643 (1,13,8) -0.282947
(1,12,9): (1,11,9) -0.238823 (1,12,8) 0.432643 (1,12,10) -0.219028 (1,13,9) -0.132964
(1,12,10): (1,11,10) -0.211345 (1,12,9) 0.219028 (1,13,10) -7.745065E-02
(1,13,1): (1,12,1) 3.919528E-02 (1,13,2) 0.130317 (1,14,1) -8.401330E-02
(1,13,2): (1,12,2) 5.946264E-02 (1,13,1) -0.130317 (1,13,3) 0.251779 (1,14,2) -0.119570
(1,13,3): (1,12,3) 0.123312 (1,13,2) -0.251779 (1,13,4) 0.335900 (1,14,3) -0.195923
(1,13,4): (1,12,4) 0.277794 (1,13,3) -0.335900 (1,13,5) 0.315118 (1,14,4) -0.314059
(1,13,5): (1,12,5) 0.521934 (1,13,4) -0.315118 (1,13,6) 0.113810 (1,14,5) -0.440583
(1,13,6): (1,12,6) 0.544485 (1,13,5) -0.113810 (1,13,7) -9.385689E-02 (1,14,6) -0.479245
(1,13,7): (1,12,7) 0.524186 (1,13,6) 9.385689E-02 (1,13,8) -0.284394 (1,14,7) -0.444657
(1,13,8): (1,12,8) 0.282947 (1,13,7) 0.284394 (1,13,9) -0.282442 (1,14,8) -0.324488
(1,13,9): (1,12,9) 0.132964 (1,13,8) 0.282442 (1,13,10) -0.163468 (1,14,9) -0.217920
(1,13,10): (1,12,10) 7.745065E-02 (1,13,9) 0.163468 (1,14,10) -0.162401
(1,14,1): (1,13,1) 8.401330E-02 (1,14,2) 9.475659E-02 (1,15,1) -5.861111E-02
(1,14,2): (1,13,2) 0.119570 (1,14,1) -9.475659E-02 (1,14,3) 0.175384 (1,15,2) -8.132638E-02
(1,14,3): (1,13,3) 0.195923 (1,14,2) -0.175384 (1,14,4) 0.217739 (1,15,3) -0.126302
(1,14,4): (1,13,4) 0.314059 (1,14,3) -0.217739 (1,14,5) 0.188747 (1,15,4) -0.187643
(1,14,5): (1,13,5) 0.440583 (1,14,4) -0.188747 (1,14,6) 7.528273E-02 (1,15,5) -0.245340
(1,14,6): (1,13,6) 0.479245 (1,14,5) -7.528273E-02 (1,14,7) -5.939626E-02 (1,15,6) -0.266866
(1,14,7): (1,13,7) 0.444657 (1,14,6) 5.939626E-02 (1,14,8) -0.164412 (1,15,7) -0.248184
(1,14,8): (1,13,8) 0.324488 (1,14,7) 0.164412 (1,14,9) -0.175918 (1,15,8) -0.194997
(1,14,9): (1,13,9) 0.217920 (1,14,8) 0.175918 (1,14,10) -0.107978 (1,15,9) -0.141870
(1,14,10): (1,13,10) 0.162401 (1,14,9) 0.107978 (1,15,10) -0.111267
(1,15,1): (1,14,1) 5.861111E-02 (1,15,2) 7.203830E-02
(1,15,2): (1,14,2) 8.132638E-02 (1,15,1) -7.203830E-02 (1,15,3) 0.130387
(1,15,3): (1,14,3) 0.126302 (1,15,2) -0.130387 (1,15,4) 0.156380
(1,15,4): (1,14,4) 0.187643 (1,15,3) -0.156380 (1,15,5) 0.131082
(1,15,5): (1,14,5) 0.245340 (1,15,4) -0.131082 (1,15,6) 5.379666E-02
(1,15,6): (1,14,6) 0.266866 (1,15,5) -5.379666E-02 (1,15,7) -4.075211E-02
(1,15,7): (1,14,7) 0.248184 (1,15,6) 4.075211E-02 (1,15,8) -0.111268
(1,15,8): (1,14,8) 0.194997 (1,15,7) 0.111268 (1,15,9) -0.122801
(1,15,9): (1,14,9) 0.141870 (1,15,8) 0.122801 (1,15,10) -7.738526E-02
(1,15,10): (1,14,10) 0.111267 (1,15,9) 7.738526E-02

 WEL PACKAGE (WEL-1) FLOW RATES   PERIOD      2   STEP       90
 ----------------------------------------------------------------------------------------
   NUMBER   CELLID                    RATE       NAME                                    
 ----------------------------------------------------------------------------------------
     1      (1,8,6)              -200.04613      WEL                                     
 ----------------------------------------------------------------------------------------




 API PACKAGE (MAR) FLOW RATES   PERIOD      2   STEP       90
 -----------------------------------------------
   NUMBER   CELLID                    RATE      
 -----------------------------------------------
     1      (1,6,5)               46.666667     
     2      (1,6,6)               46.666667     
     3      (1,6,7)               46.666667     
     4      (1,10,5)              20.015375     
     5      (1,10,6)              20.015375     
     6      (1,10,7)              20.015375     
 -----------------------------------------------



1
  HEAD IN LAYER   1 AT END OF TIME STEP  90 IN STRESS PERIOD    2
  ---------------------------------------------------------------------------

            1           2           3           4           5           6           7           8           9          10
 ........................................................................................................................
   1   3.5614E-02  4.7982E-02  7.0998E-02  9.9645E-02  0.1245      0.1347      0.1263      0.1042      8.0579E-02  6.6001E-02
   2   4.7532E-02  6.5922E-02  0.1013      0.1474      0.1893      0.2065      0.1916      0.1533      0.1139      9.0455E-02
   3   6.8110E-02  9.8470E-02  0.1599      0.2463      0.3318      0.3654      0.3348      0.2544      0.1777      0.1345    
   4   8.8627E-02  0.1347      0.2352      0.3948      0.5777      0.6414      0.5814      0.4048      0.2579      0.1826    
   5   9.3508E-02  0.1504      0.2901      0.5620      0.9793       1.078      0.9830      0.5720      0.3134      0.2016    
   6   6.6174E-02  0.1089      0.2365      0.6013       1.689       1.707       1.691      0.6085      0.2529      0.1442    
   7   9.1830E-03 -6.5742E-03 -5.5130E-02 -0.1815     -0.5138      -1.600     -0.5124     -0.1786     -5.1727E-02 -6.7811E-03
   8  -3.3816E-02 -9.6046E-02 -0.2892     -0.8377      -2.498      -8.666      -2.498     -0.8385     -0.2959     -0.1238    
   9  -2.8992E-02 -7.8358E-02 -0.2145     -0.5246      -1.166      -2.373      -1.166     -0.5252     -0.2204     -0.1023    
  10   4.9574E-03 -6.4643E-03 -2.4902E-02 -6.7580E-04  0.3220      0.1542      0.3231      1.3924E-03 -2.3009E-02 -8.5809E-03
  11   3.2877E-02  4.2530E-02  6.7737E-02  0.1269      0.2401      0.2338      0.2420      0.1315      7.6454E-02  5.7444E-02
  12   4.2585E-02  5.7559E-02  8.8856E-02  0.1373      0.1921      0.2055      0.1943      0.1428      0.1001      7.8414E-02
  13   3.8682E-02  5.1647E-02  7.6633E-02  0.1099      0.1409      0.1521      0.1429      0.1149      8.6935E-02  7.0729E-02
  14   3.0313E-02  3.9751E-02  5.7190E-02  7.8793E-02  9.7486E-02  0.1049      9.9058E-02  8.2778E-02  6.5331E-02  5.4603E-02
  15   2.4470E-02  3.1651E-02  4.4631E-02  6.0176E-02  7.3189E-02  7.8527E-02  7.4483E-02  6.3439E-02  5.1236E-02  4.3537E-02

 HEAD WILL BE SAVED ON UNIT 1043 AT END OF TIME STEP   90, STRESS PERIOD    2


  VOLUME BUDGET FOR ENTIRE MODEL AT END OF TIME STEP   90, STRESS PERIOD   2
  ---------------------------------------------------------------------------------------------------

     CUMULATIVE VOLUME      L**3       RATES FOR THIS TIME STEP      L**3/T          PACKAGE NAME    
     ------------------                 ------------------------                     ----------------

           IN:                                      IN:
           ---                                      ---
              STO-SS =          27.3183                STO-SS =       1.2984E-02     STORAGE                          
              STO-SY =       64108.3899                STO-SY =          26.7958     STORAGE                          
                 WEL =           0.0000                   WEL =           0.0000     WEL-1                            
                 API =      199977.9955                   API =         200.0461     MAR                              
                 CHD =       2.8247E-08                   CHD =           0.0000     CHD_0                            

            TOTAL IN =      264113.7037              TOTAL IN =         226.8549

          OUT:                                     OUT:
          ----                                     ----
              STO-SS =          33.2224                STO-SS =       1.3762E-02     STORAGE                          
              STO-SY =       64102.4858                STO-SY =          26.7950     STORAGE                          
                 WEL =      199977.9955                   WEL =         200.0461     WEL-1                            
                 API =           0.0000                   API =           0.0000     MAR                              
                 CHD =       3.0388E-08                   CHD =           0.0000     CHD_0                            

           TOTAL OUT =      264113.7037             TOTAL OUT =         226.8549

            IN - OUT =       4.1351E-06              IN - OUT =       9.4666E-09

 PERCENT DISCREPANCY =           0.00     PERCENT DISCREPANCY =           0.00




         TIME SUMMARY AT END OF TIME STEP   90 IN STRESS PERIOD    2
                    SECONDS     MINUTES      HOURS       DAYS        YEARS
                    -----------------------------------------------------------
   TIME STEP LENGTH 8.64000E+05  14400.      240.00      10.000     2.73785E-02
 STRESS PERIOD TIME 7.77600E+07 1.29600E+06  21600.      900.00      2.4641    
         TOTAL TIME 7.78464E+07 1.29744E+06  21624.      901.00      2.4668    


end timestep


start timestep kper="2" kstp="91" mode="normal"

 UBDSV1 SAVING           STO-SS ON UNIT   1042 AT TIME STEP     91, STRESS PERIOD      2
 UBDSV1 SAVING           STO-SY ON UNIT   1042 AT TIME STEP     91, STRESS PERIOD      2
 UBDSV1 SAVING     FLOW-JA-FACE ON UNIT   1042 AT TIME STEP     91, STRESS PERIOD      2
 UBDSV06 SAVING       DATA-SPDIS IN MODEL GWF              PACKAGE NPF             CONNECTED TO MODEL GWF              PACKAGE NPF              ON UNIT   1042 AT TIME STEP     91, STRESS PERIOD      2
 UBDSV06 SAVING              WEL IN MODEL GWF              PACKAGE GWF             CONNECTED TO MODEL GWF              PACKAGE WEL-1            ON UNIT   1042 AT TIME STEP     91, STRESS PERIOD      2
 UBDSV06 SAVING              API IN MODEL GWF              PACKAGE GWF             CONNECTED TO MODEL GWF              PACKAGE MAR              ON UNIT   1042 AT TIME STEP     91, STRESS PERIOD      2
 UBDSV06 SAVING              CHD IN MODEL GWF              PACKAGE GWF             CONNECTED TO MODEL GWF              PACKAGE CHD_0            ON UNIT   1042 AT TIME STEP     91, STRESS PERIOD      2

    CALCULATED INTERCELL FLOW FOR PERIOD 2 STEP 91
(1,1,1): (1,1,2) 0.126481 (1,2,1) 0.121149
(1,1,2): (1,1,1) -0.126481 (1,1,3) 0.235582 (1,2,2) 0.182155
(1,1,3): (1,1,2) -0.235582 (1,1,4) 0.293549 (1,2,3) 0.307601
(1,1,4): (1,1,3) -0.293549 (1,1,5) 0.255015 (1,2,4) 0.486569
(1,1,5): (1,1,4) -0.255015 (1,1,6) 0.105348 (1,2,5) 0.663031
(1,1,6): (1,1,5) -0.105348 (1,1,7) -8.661418E-02 (1,2,6) 0.734322
(1,1,7): (1,1,6) 8.661418E-02 (1,1,8) -0.225655 (1,2,7) 0.668294
(1,1,8): (1,1,7) 0.225655 (1,1,9) -0.241503 (1,2,8) 0.500752
(1,1,9): (1,1,8) 0.241503 (1,1,10) -0.148736 (1,2,9) 0.339637
(1,1,10): (1,1,9) 0.148736 (1,2,10) 0.248887
(1,2,1): (1,1,1) -0.121149 (1,2,2) 0.187490 (1,3,1) 0.208831
(1,2,2): (1,1,2) -0.182155 (1,2,1) -0.187490 (1,2,3) 0.361094 (1,3,2) 0.330443
(1,2,3): (1,1,3) -0.307601 (1,2,2) -0.361094 (1,2,4) 0.472492 (1,3,3) 0.597117
(1,2,4): (1,1,4) -0.486569 (1,2,3) -0.472492 (1,2,5) 0.431088 (1,3,4) 1.01570
(1,2,5): (1,1,5) -0.663031 (1,2,4) -0.431088 (1,2,6) 0.176263 (1,3,5) 1.47373
(1,2,6): (1,1,6) -0.734322 (1,2,5) -0.176263 (1,2,7) -0.152279 (1,3,6) 1.64924
(1,2,7): (1,1,7) -0.668294 (1,2,6) 0.152279 (1,2,8) -0.392758 (1,3,7) 1.48237
(1,2,8): (1,1,8) -0.500752 (1,2,7) 0.392758 (1,2,9) -0.402465 (1,3,8) 1.03916
(1,2,9): (1,1,9) -0.339637 (1,2,8) 0.402465 (1,2,10) -0.239398 (1,3,9) 0.651398
(1,2,10): (1,1,10) -0.248887 (1,2,9) 0.239398 (1,3,10) 0.448300
(1,3,1): (1,2,1) -0.208831 (1,3,2) 0.309077 (1,4,1) 0.207087
(1,3,2): (1,2,2) -0.330443 (1,3,1) -0.309077 (1,3,3) 0.627847 (1,4,2) 0.367311
(1,3,3): (1,2,3) -0.597117 (1,3,2) -0.627847 (1,3,4) 0.890581 (1,4,3) 0.770581
(1,3,4): (1,2,4) -1.01570 (1,3,3) -0.890581 (1,3,5) 0.886652 (1,4,4) 1.54236
(1,3,5): (1,2,5) -1.47373 (1,3,4) -0.886652 (1,3,6) 0.349709 (1,4,5) 2.59976
(1,3,6): (1,2,6) -1.64924 (1,3,5) -0.349709 (1,3,7) -0.317133 (1,4,6) 2.93564
(1,3,7): (1,2,7) -1.48237 (1,3,6) 0.317133 (1,3,8) -0.833334 (1,4,7) 2.60754
(1,3,8): (1,2,8) -1.03916 (1,3,7) 0.833334 (1,3,9) -0.789316 (1,4,8) 1.56354
(1,3,9): (1,2,9) -0.651398 (1,3,8) 0.789316 (1,3,10) -0.442090 (1,4,9) 0.822023
(1,3,10): (1,2,10) -0.448300 (1,3,9) 0.442090 (1,4,10) 0.489480
(1,4,1): (1,3,1) -0.207087 (1,4,2) 0.469458 (1,5,1) 4.635471E-02
(1,4,2): (1,3,2) -0.367311 (1,4,1) -0.469458 (1,4,3) 1.03211 (1,5,2) 0.155527
(1,4,3): (1,3,3) -0.770581 (1,4,2) -1.03211 (1,4,4) 1.66321 (1,5,3) 0.559304
(1,4,4): (1,3,4) -1.54236 (1,4,3) -1.66321 (1,4,5) 1.93796 (1,5,4) 1.75881
(1,4,5): (1,3,5) -2.59976 (1,4,4) -1.93796 (1,4,6) 0.679214 (1,5,5) 4.40143
(1,4,6): (1,3,6) -2.93564 (1,4,5) -0.679214 (1,4,7) -0.638876 (1,5,6) 4.82291
(1,4,7): (1,3,7) -2.60754 (1,4,6) 0.638876 (1,4,8) -1.87064 (1,5,7) 4.40239
(1,4,8): (1,3,8) -1.56354 (1,4,7) 1.87064 (1,4,9) -1.53061 (1,5,8) 1.76055
(1,4,9): (1,3,9) -0.822023 (1,4,8) 1.53061 (1,4,10) -0.774484 (1,5,9) 0.566389
(1,4,10): (1,3,10) -0.489480 (1,4,9) 0.774484 (1,5,10) 0.189245
(1,5,1): (1,4,1) -4.635471E-02 (1,5,2) 0.579078 (1,6,1) -0.281914
(1,5,2): (1,4,2) -0.155527 (1,5,1) -0.579078 (1,5,3) 1.43923 (1,6,2) -0.429349
(1,5,3): (1,4,3) -0.559304 (1,5,2) -1.43923 (1,5,4) 2.87456 (1,6,3) -0.560965
(1,5,4): (1,4,4) -1.75881 (1,5,3) -2.87456 (1,5,5) 4.58448 (1,6,4) 0.404451
(1,5,5): (1,4,5) -4.40143 (1,5,4) -4.58448 (1,5,6) 1.08907 (1,6,5) 8.27795
(1,5,6): (1,4,6) -4.82291 (1,5,5) -1.08907 (1,5,7) -1.04763 (1,6,6) 7.36174
(1,5,7): (1,4,7) -4.40239 (1,5,6) 1.04763 (1,5,8) -4.51488 (1,6,7) 8.26763
(1,5,8): (1,4,8) -1.76055 (1,5,7) 4.51488 (1,5,9) -2.73506 (1,6,8) 0.374037
(1,5,9): (1,4,9) -0.566389 (1,5,8) 2.73506 (1,5,10) -1.15370 (1,6,9) -0.635787
(1,5,10): (1,4,10) -0.189245 (1,5,9) 1.15370 (1,6,10) -0.596136
(1,6,1): (1,5,1) 0.281914 (1,6,2) 0.431431 (1,7,1) -0.581141
(1,6,2): (1,5,2) 0.429349 (1,6,1) -0.431431 (1,6,3) 1.30657 (1,7,2) -1.17632
(1,6,3): (1,5,3) 0.560965 (1,6,2) -1.30657 (1,6,4) 3.86727 (1,7,3) -2.99776
(1,6,4): (1,5,4) -0.404451 (1,6,3) -3.86727 (1,6,5) 12.7121 (1,7,4) -8.31387
(1,6,5): (1,5,5) -8.27795 (1,6,4) -12.7121 (1,6,6) 0.221275 (1,7,5) -25.7613
(1,6,6): (1,5,6) -7.36174 (1,6,5) -0.221275 (1,6,7) -0.189730 (1,7,6) -38.7322
(1,6,7): (1,5,7) -8.26763 (1,6,6) 0.189730 (1,6,8) -12.6609 (1,7,7) -25.7810
(1,6,8): (1,5,8) -0.374037 (1,6,7) 12.6609 (1,6,9) -3.77212 (1,7,8) -8.36634
(1,6,9): (1,5,9) 0.635787 (1,6,8) 3.77212 (1,6,10) -1.11389 (1,7,9) -3.13769
(1,6,10): (1,5,10) 0.596136 (1,6,9) 1.11389 (1,7,10) -1.54477
(1,7,1): (1,6,1) 0.581141 (1,7,2) -0.159681 (1,8,1) -0.436736
(1,7,2): (1,6,2) 1.17632 (1,7,1) 0.159681 (1,7,3) -0.488103 (1,8,2) -0.902448
(1,7,3): (1,6,3) 2.99776 (1,7,2) 0.488103 (1,7,4) -1.25878 (1,8,3) -2.33929
(1,7,4): (1,6,4) 8.31387 (1,7,3) 1.25878 (1,7,5) -3.26080 (1,8,4) -6.45811
(1,7,5): (1,6,5) 25.7613 (1,7,4) 3.26080 (1,7,6) -10.2955 (1,8,5) -18.8384
(1,7,6): (1,6,6) 38.7322 (1,7,5) 10.2955 (1,7,7) 10.3115 (1,8,6) -59.3665
(1,7,7): (1,6,7) 25.7810 (1,7,6) -10.3115 (1,7,8) 3.27557 (1,8,7) -18.8525
(1,7,8): (1,6,8) 8.36634 (1,7,7) -3.27557 (1,7,9) 1.26370 (1,8,8) -6.49654
(1,7,9): (1,6,9) 3.13769 (1,7,8) -1.26370 (1,7,10) 0.450724 (1,8,9) -2.44302
(1,7,10): (1,6,10) 1.54477 (1,7,9) -0.450724 (1,8,10) -1.18060
(1,8,1): (1,7,1) 0.436736 (1,8,2) -0.624101 (1,9,1) 4.512192E-02
(1,8,2): (1,7,2) 0.902448 (1,8,1) 0.624101 (1,8,3) -1.91894 (1,9,2) 0.170867
(1,8,3): (1,7,3) 2.33929 (1,8,2) 1.91894 (1,8,4) -5.33168 (1,9,3) 0.722461
(1,8,4): (1,7,4) 6.45811 (1,8,3) 5.33168 (1,8,5) -15.2085 (1,9,4) 2.95209
(1,8,5): (1,7,5) 18.8384 (1,8,4) 15.2085 (1,8,6) -46.2474 (1,9,5) 11.7365
(1,8,6): (1,7,6) 59.3665 (1,8,5) 46.2474 (1,8,7) 46.2521 (1,9,6) 47.9333
(1,8,7): (1,7,7) 18.8525 (1,8,6) -46.2521 (1,8,8) 15.1967 (1,9,7) 11.7368
(1,8,8): (1,7,8) 6.49654 (1,8,7) -15.1967 (1,8,9) 5.26790 (1,9,8) 2.95300
(1,8,9): (1,7,9) 2.44302 (1,8,8) -5.26790 (1,8,10) 1.70383 (1,9,9) 0.729237
(1,8,10): (1,7,10) 1.18060 (1,8,9) -1.70383 (1,9,10) 0.206117
(1,9,1): (1,8,1) -4.512192E-02 (1,9,2) -0.497780 (1,10,1) 0.340894
(1,9,2): (1,8,2) -0.170867 (1,9,1) 0.497780 (1,9,3) -1.36055 (1,10,2) 0.719224
(1,9,3): (1,8,3) -0.722461 (1,9,2) 1.36055 (1,9,4) -3.04557 (1,10,3) 1.89019
(1,9,4): (1,8,4) -2.95209 (1,9,3) 3.04557 (1,9,5) -6.08726 (1,10,4) 5.23231
(1,9,5): (1,8,5) -11.7365 (1,9,4) 6.08726 (1,9,6) -10.6570 (1,10,5) 15.3387
(1,9,6): (1,8,6) -47.9333 (1,9,5) 10.6570 (1,9,7) 10.6604 (1,10,6) 25.6295
(1,9,7): (1,8,7) -11.7368 (1,9,6) -10.6604 (1,9,8) 6.07723 (1,10,7) 15.3479
(1,9,8): (1,8,8) -2.95300 (1,9,7) -6.07723 (1,9,9) 2.98930 (1,10,8) 5.26011
(1,9,9): (1,8,9) -0.729237 (1,9,8) -2.98930 (1,9,10) 1.17544 (1,10,9) 1.96915
(1,9,10): (1,8,10) -0.206117 (1,9,9) -1.17544 (1,10,10) 0.937597
(1,10,1): (1,9,1) -0.340894 (1,10,2) -0.120286 (1,11,1) 0.284450
(1,10,2): (1,9,2) -0.719224 (1,10,1) 0.120286 (1,10,3) -0.195751 (1,11,2) 0.497502
(1,10,3): (1,9,3) -1.89019 (1,10,2) 0.195751 (1,10,4) 0.226213 (1,11,3) 0.940211
(1,10,4): (1,9,4) -5.23231 (1,10,3) -0.226213 (1,10,5) 3.30868 (1,11,4) 1.30303
(1,10,5): (1,9,5) -15.3387 (1,10,4) -3.30868 (1,10,6) -1.73601 (1,11,5) -0.825110
(1,10,6): (1,9,6) -25.6295 (1,10,5) 1.73601 (1,10,7) 1.74718 (1,11,6) 0.834506
(1,10,7): (1,9,7) -15.3479 (1,10,6) -1.74718 (1,10,8) -3.29941 (1,11,7) -0.816551
(1,10,8): (1,9,8) -5.26011 (1,10,7) 3.29941 (1,10,9) -0.229732 (1,11,8) 1.32953
(1,10,9): (1,9,9) -1.96915 (1,10,8) 0.229732 (1,10,10) 0.152036 (1,11,9) 1.01096
(1,10,10): (1,9,10) -0.937597 (1,10,9) -0.152036 (1,11,10) 0.671598
(1,11,1): (1,10,1) -0.284450 (1,11,2) 9.205497E-02 (1,12,1) 0.102490
(1,11,2): (1,10,2) -0.497502 (1,11,1) -9.205497E-02 (1,11,3) 0.244309 (1,12,2) 0.158053
(1,11,3): (1,10,3) -0.940211 (1,11,2) -0.244309 (1,11,4) 0.586531 (1,12,3) 0.223598
(1,11,4): (1,10,4) -1.30303 (1,11,3) -0.586531 (1,11,5) 1.14686 (1,12,4) 0.120417
(1,11,5): (1,10,5) 0.825110 (1,11,4) -1.14686 (1,11,6) -6.877835E-02 (1,12,5) -0.470527
(1,11,6): (1,10,6) -0.834506 (1,11,5) 6.877835E-02 (1,11,7) 8.828063E-02 (1,12,6) -0.267471
(1,11,7): (1,10,7) 0.816551 (1,11,6) -8.828063E-02 (1,11,8) -1.11992 (1,12,7) -0.467516
(1,11,8): (1,10,8) -1.32953 (1,11,7) 1.11992 (1,11,9) -0.545904 (1,12,8) 0.130447
(1,11,9): (1,10,9) -1.01096 (1,11,8) 0.545904 (1,11,10) -0.184809 (1,12,9) 0.250708
(1,11,10): (1,10,10) -0.671598 (1,11,9) 0.184809 (1,12,10) 0.220891
(1,12,1): (1,11,1) -0.102490 (1,12,2) 0.147613 (1,13,1) -3.553980E-02
(1,12,2): (1,11,2) -0.158053 (1,12,1) -0.147613 (1,12,3) 0.309909 (1,13,2) -5.406148E-02
(1,12,3): (1,11,3) -0.223598 (1,12,2) -0.309909 (1,12,4) 0.482982 (1,13,3) -0.114624
(1,12,4): (1,11,4) -0.120417 (1,12,3) -0.482982 (1,12,5) 0.552239 (1,13,4) -0.264876
(1,12,5): (1,11,5) 0.470527 (1,12,4) -0.552239 (1,12,6) 0.133672 (1,13,5) -0.505085
(1,12,6): (1,11,6) 0.267471 (1,12,5) -0.133672 (1,12,7) -0.111160 (1,13,6) -0.526165
(1,12,7): (1,11,7) 0.467516 (1,12,6) 0.111160 (1,12,8) -0.518393 (1,13,7) -0.507201
(1,12,8): (1,11,8) -0.130447 (1,12,7) 0.518393 (1,12,9) -0.425296 (1,13,8) -0.269618
(1,12,9): (1,11,9) -0.250708 (1,12,8) 0.425296 (1,12,10) -0.214615 (1,13,9) -0.123274
(1,12,10): (1,11,10) -0.220891 (1,12,9) 0.214615 (1,13,10) -6.993639E-02
(1,13,1): (1,12,1) 3.553980E-02 (1,13,2) 0.129074 (1,14,1) -8.219083E-02
(1,13,2): (1,12,2) 5.406148E-02 (1,13,1) -0.129074 (1,13,3) 0.249231 (1,14,2) -0.116605
(1,13,3): (1,12,3) 0.114624 (1,13,2) -0.249231 (1,13,4) 0.332412 (1,14,3) -0.190809
(1,13,4): (1,12,4) 0.264876 (1,13,3) -0.332412 (1,13,5) 0.311922 (1,14,4) -0.306232
(1,13,5): (1,12,5) 0.505085 (1,13,4) -0.311922 (1,13,6) 0.112669 (1,14,5) -0.430365
(1,13,6): (1,12,6) 0.526165 (1,13,5) -0.112669 (1,13,7) -9.226947E-02 (1,14,6) -0.468093
(1,13,7): (1,12,7) 0.507201 (1,13,6) 9.226947E-02 (1,13,8) -0.280785 (1,14,7) -0.434395
(1,13,8): (1,12,8) 0.269618 (1,13,7) 0.280785 (1,13,9) -0.278731 (1,14,8) -0.316488
(1,13,9): (1,12,9) 0.123274 (1,13,8) 0.278731 (1,13,10) -0.161230 (1,14,9) -0.212299
(1,13,10): (1,12,10) 6.993639E-02 (1,13,9) 0.161230 (1,14,10) -0.158239
(1,14,1): (1,13,1) 8.219083E-02 (1,14,2) 9.465621E-02 (1,15,1) -5.802962E-02
(1,14,2): (1,13,2) 0.116605 (1,14,1) -9.465621E-02 (1,14,3) 0.174984 (1,15,2) -8.022579E-02
(1,14,3): (1,13,3) 0.190809 (1,14,2) -0.174984 (1,14,4) 0.216959 (1,15,3) -0.124222
(1,14,4): (1,13,4) 0.306232 (1,14,3) -0.216959 (1,14,5) 0.187930 (1,15,4) -0.184329
(1,14,5): (1,13,5) 0.430365 (1,14,4) -0.187930 (1,14,6) 7.506927E-02 (1,15,5) -0.240955
(1,14,6): (1,13,6) 0.468093 (1,14,5) -7.506927E-02 (1,14,7) -5.869300E-02 (1,15,6) -0.262061
(1,14,7): (1,13,7) 0.434395 (1,14,6) 5.869300E-02 (1,14,8) -0.163052 (1,15,7) -0.243799
(1,14,8): (1,13,8) 0.316488 (1,14,7) 0.163052 (1,14,9) -0.174580 (1,15,8) -0.191647
(1,14,9): (1,13,9) 0.212299 (1,14,8) 0.174580 (1,14,10) -0.107197 (1,15,9) -0.139624
(1,14,10): (1,13,10) 0.158239 (1,14,9) 0.107197 (1,15,10) -0.109705
(1,15,1): (1,14,1) 5.802962E-02 (1,15,2) 7.245686E-02
(1,15,2): (1,14,2) 8.022579E-02 (1,15,1) -7.245686E-02 (1,15,3) 0.130967
(1,15,3): (1,14,3) 0.124222 (1,15,2) -0.130967 (1,15,4) 0.156832
(1,15,4): (1,14,4) 0.184329 (1,15,3) -0.156832 (1,15,5) 0.131334
(1,15,5): (1,14,5) 0.240955 (1,15,4) -0.131334 (1,15,6) 5.400115E-02
(1,15,6): (1,14,6) 0.262061 (1,15,5) -5.400115E-02 (1,15,7) -4.046678E-02
(1,15,7): (1,14,7) 0.243799 (1,15,6) 4.046678E-02 (1,15,8) -0.110941
(1,15,8): (1,14,8) 0.191647 (1,15,7) 0.110941 (1,15,9) -0.122566
(1,15,9): (1,14,9) 0.139624 (1,15,8) 0.122566 (1,15,10) -7.728740E-02
(1,15,10): (1,14,10) 0.109705 (1,15,9) 7.728740E-02

 WEL PACKAGE (WEL-1) FLOW RATES   PERIOD      2   STEP       91
 ----------------------------------------------------------------------------------------
   NUMBER   CELLID                    RATE       NAME                                    
 ----------------------------------------------------------------------------------------
     1      (1,8,6)              -199.92922      WEL                                     
 ----------------------------------------------------------------------------------------




 API PACKAGE (MAR) FLOW RATES   PERIOD      2   STEP       91
 -----------------------------------------------
   NUMBER   CELLID                    RATE      
 -----------------------------------------------
     1      (1,6,5)               46.666667     
     2      (1,6,6)               46.666667     
     3      (1,6,7)               46.666667     
     4      (1,10,5)              19.976406     
     5      (1,10,6)              19.976406     
     6      (1,10,7)              19.976406     
 -----------------------------------------------



1
  HEAD IN LAYER   1 AT END OF TIME STEP  91 IN STRESS PERIOD    2
  ---------------------------------------------------------------------------

            1           2           3           4           5           6           7           8           9          10
 ........................................................................................................................
   1   3.6851E-02  4.9437E-02  7.2825E-02  0.1019      0.1271      0.1375      0.1289      0.1066      8.2740E-02  6.7988E-02
   2   4.8907E-02  6.7531E-02  0.1033      0.1498      0.1921      0.2094      0.1945      0.1559      0.1163      9.2648E-02
   3   6.9646E-02  0.1002      0.1620      0.2489      0.3347      0.3684      0.3379      0.2573      0.1803      0.1369    
   4   9.0170E-02  0.1365      0.2373      0.3973      0.5804      0.6442      0.5842      0.4075      0.2604      0.1849    
   5   9.4762E-02  0.1518      0.2916      0.5638      0.9812       1.080      0.9850      0.5740      0.3153      0.2035    
   6   6.6835E-02  0.1095      0.2371      0.6019       1.689       1.708       1.692      0.6092      0.2537      0.1451    
   7   9.1067E-03 -6.8468E-03 -5.5691E-02 -0.1823     -0.5144      -1.600     -0.5129     -0.1794     -5.2319E-02 -7.2137E-03
   8  -3.4527E-02 -9.7154E-02 -0.2909     -0.8401      -2.500      -8.667      -2.500     -0.8409     -0.2979     -0.1254    
   9  -3.0001E-02 -7.9929E-02 -0.2171     -0.5284      -1.171      -2.378      -1.171     -0.5291     -0.2233     -0.1045    
  10   4.0742E-03 -7.9495E-03 -2.7540E-02 -4.9078E-03  0.3158      0.1475      0.3169     -2.9100E-03 -2.5890E-02 -1.0670E-02
  11   3.2427E-02  4.1595E-02  6.5866E-02  0.1238      0.2358      0.2291      0.2377      0.1284      7.4459E-02  5.6115E-02
  12   4.2633E-02  5.7310E-02  8.8030E-02  0.1357      0.1899      0.2030      0.1921      0.1412      9.9284E-02  7.8033E-02
  13   3.9094E-02  5.1935E-02  7.6668E-02  0.1095      0.1403      0.1514      0.1423      0.1146      8.7077E-02  7.1094E-02
  14   3.0907E-02  4.0334E-02  5.7732E-02  7.9258E-02  9.7868E-02  0.1053      9.9489E-02  8.3344E-02  6.6031E-02  5.5381E-02
  15   2.5122E-02  3.2344E-02  4.5381E-02  6.0970E-02  7.4007E-02  7.9364E-02  7.5349E-02  6.4338E-02  5.2160E-02  4.4471E-02

 HEAD WILL BE SAVED ON UNIT 1043 AT END OF TIME STEP   91, STRESS PERIOD    2


  VOLUME BUDGET FOR ENTIRE MODEL AT END OF TIME STEP   91, STRESS PERIOD   2
  ---------------------------------------------------------------------------------------------------

     CUMULATIVE VOLUME      L**3       RATES FOR THIS TIME STEP      L**3/T          PACKAGE NAME    
     ------------------                 ------------------------                     ----------------

           IN:                                      IN:
           ---                                      ---
              STO-SS =          27.4470                STO-SS =       1.2875E-02     STORAGE                          
              STO-SY =       64374.0754                STO-SY =          26.5686     STORAGE                          
                 WEL =           0.0000                   WEL =           0.0000     WEL-1                            
                 API =      201977.2877                   API =         199.9292     MAR                              
                 CHD =       2.8247E-08                   CHD =           0.0000     CHD_0                            

            TOTAL IN =      266378.8102              TOTAL IN =         226.5106

          OUT:                                     OUT:
          ----                                     ----
              STO-SS =          33.3589                STO-SS =       1.3647E-02     STORAGE                          
              STO-SY =       64368.1636                STO-SY =          26.5678     STORAGE                          
                 WEL =      201977.2877                   WEL =         199.9292     WEL-1                            
                 API =           0.0000                   API =           0.0000     MAR                              
                 CHD =       3.0388E-08                   CHD =           0.0000     CHD_0                            

           TOTAL OUT =      266378.8101             TOTAL OUT =         226.5106

            IN - OUT =       4.2284E-06              IN - OUT =       9.3228E-09

 PERCENT DISCREPANCY =           0.00     PERCENT DISCREPANCY =           0.00




         TIME SUMMARY AT END OF TIME STEP   91 IN STRESS PERIOD    2
                    SECONDS     MINUTES      HOURS       DAYS        YEARS
                    -----------------------------------------------------------
   TIME STEP LENGTH 8.64000E+05  14400.      240.00      10.000     2.73785E-02
 STRESS PERIOD TIME 7.86240E+07 1.31040E+06  21840.      910.00      2.4914    
         TOTAL TIME 7.87104E+07 1.31184E+06  21864.      911.00      2.4942    


end timestep


start timestep kper="2" kstp="92" mode="normal"

 UBDSV1 SAVING           STO-SS ON UNIT   1042 AT TIME STEP     92, STRESS PERIOD      2
 UBDSV1 SAVING           STO-SY ON UNIT   1042 AT TIME STEP     92, STRESS PERIOD      2
 UBDSV1 SAVING     FLOW-JA-FACE ON UNIT   1042 AT TIME STEP     92, STRESS PERIOD      2
 UBDSV06 SAVING       DATA-SPDIS IN MODEL GWF              PACKAGE NPF             CONNECTED TO MODEL GWF              PACKAGE NPF              ON UNIT   1042 AT TIME STEP     92, STRESS PERIOD      2
 UBDSV06 SAVING              WEL IN MODEL GWF              PACKAGE GWF             CONNECTED TO MODEL GWF              PACKAGE WEL-1            ON UNIT   1042 AT TIME STEP     92, STRESS PERIOD      2
 UBDSV06 SAVING              API IN MODEL GWF              PACKAGE GWF             CONNECTED TO MODEL GWF              PACKAGE MAR              ON UNIT   1042 AT TIME STEP     92, STRESS PERIOD      2
 UBDSV06 SAVING              CHD IN MODEL GWF              PACKAGE GWF             CONNECTED TO MODEL GWF              PACKAGE CHD_0            ON UNIT   1042 AT TIME STEP     92, STRESS PERIOD      2

    CALCULATED INTERCELL FLOW FOR PERIOD 2 STEP 92
(1,1,1): (1,1,2) 0.128667 (1,2,1) 0.122500
(1,1,2): (1,1,1) -0.128667 (1,1,3) 0.239323 (1,2,2) 0.183662
(1,1,3): (1,1,2) -0.239323 (1,1,4) 0.297726 (1,2,3) 0.309360
(1,1,4): (1,1,3) -0.297726 (1,1,5) 0.258346 (1,2,4) 0.488587
(1,1,5): (1,1,4) -0.258346 (1,1,6) 0.106835 (1,2,5) 0.665246
(1,1,6): (1,1,5) -0.106835 (1,1,7) -8.727348E-02 (1,2,6) 0.736639
(1,1,7): (1,1,6) 8.727348E-02 (1,1,8) -0.227904 (1,2,7) 0.670607
(1,1,8): (1,1,7) 0.227904 (1,1,9) -0.244153 (1,2,8) 0.502986
(1,1,9): (1,1,8) 0.244153 (1,1,10) -0.150483 (1,2,9) 0.341760
(1,1,10): (1,1,9) 0.150483 (1,2,10) 0.250929
(1,2,1): (1,1,1) -0.122500 (1,2,2) 0.189833 (1,3,1) 0.210398
(1,2,2): (1,1,2) -0.183662 (1,2,1) -0.189833 (1,2,3) 0.365089 (1,3,2) 0.332102
(1,2,3): (1,1,3) -0.309360 (1,2,2) -0.365089 (1,2,4) 0.476933 (1,3,3) 0.598903
(1,2,4): (1,1,4) -0.488587 (1,2,3) -0.476933 (1,2,5) 0.434618 (1,3,4) 1.01758
(1,2,5): (1,1,5) -0.665246 (1,2,4) -0.434618 (1,2,6) 0.177852 (1,3,5) 1.47568
(1,2,6): (1,1,6) -0.736639 (1,2,5) -0.177852 (1,2,7) -0.152941 (1,3,6) 1.65126
(1,2,7): (1,1,7) -0.670607 (1,2,6) 0.152941 (1,2,8) -0.395086 (1,3,7) 1.48444
(1,2,8): (1,1,8) -0.502986 (1,2,7) 0.395086 (1,2,9) -0.405227 (1,3,8) 1.04130
(1,2,9): (1,1,9) -0.341760 (1,2,8) 0.405227 (1,2,10) -0.241226 (1,3,9) 0.653593
(1,2,10): (1,1,10) -0.250929 (1,2,9) 0.241226 (1,3,10) 0.450513
(1,3,1): (1,2,1) -0.210398 (1,3,2) 0.311513 (1,4,1) 0.207103
(1,3,2): (1,2,2) -0.332102 (1,3,1) -0.311513 (1,3,3) 0.631976 (1,4,2) 0.367038
(1,3,3): (1,2,3) -0.598903 (1,3,2) -0.631976 (1,3,4) 0.895133 (1,4,3) 0.769796
(1,3,4): (1,2,4) -1.01758 (1,3,3) -0.895133 (1,3,5) 0.890250 (1,4,4) 1.54097
(1,3,5): (1,2,5) -1.47568 (1,3,4) -0.890250 (1,3,6) 0.351365 (1,4,5) 2.59787
(1,3,6): (1,2,6) -1.65126 (1,3,5) -0.351365 (1,3,7) -0.317739 (1,4,6) 2.93362
(1,3,7): (1,2,7) -1.48444 (1,3,6) 0.317739 (1,3,8) -0.835590 (1,4,7) 2.60569
(1,3,8): (1,2,8) -1.04130 (1,3,7) 0.835590 (1,3,9) -0.792030 (1,4,8) 1.56219
(1,3,9): (1,2,9) -0.653593 (1,3,8) 0.792030 (1,3,10) -0.443899 (1,4,9) 0.821203
(1,3,10): (1,2,10) -0.450513 (1,3,9) 0.443899 (1,4,10) 0.489002
(1,4,1): (1,3,1) -0.207103 (1,4,2) 0.471610 (1,5,1) 4.339056E-02
(1,4,2): (1,3,2) -0.367038 (1,4,1) -0.471610 (1,4,3) 1.03575 (1,5,2) 0.151681
(1,4,3): (1,3,3) -0.769796 (1,4,2) -1.03575 (1,4,4) 1.66720 (1,5,3) 0.554001
(1,4,4): (1,3,4) -1.54097 (1,4,3) -1.66720 (1,4,5) 1.94111 (1,5,4) 1.75198
(1,4,5): (1,3,5) -2.59787 (1,4,4) -1.94111 (1,4,6) 0.680761 (1,5,5) 4.39338
(1,4,6): (1,3,6) -2.93362 (1,4,5) -0.680761 (1,4,7) -0.639336 (1,5,6) 4.81460
(1,4,7): (1,3,7) -2.60569 (1,4,6) 0.639336 (1,4,8) -1.87244 (1,5,7) 4.39418
(1,4,8): (1,3,8) -1.56219 (1,4,7) 1.87244 (1,4,9) -1.53282 (1,5,8) 1.75331
(1,4,9): (1,3,9) -0.821203 (1,4,8) 1.53282 (1,4,10) -0.775958 (1,5,9) 0.560225
(1,4,10): (1,3,10) -0.489002 (1,4,9) 0.775958 (1,5,10) 0.183836
(1,5,1): (1,4,1) -4.339056E-02 (1,5,2) 0.580350 (1,6,1) -0.287924
(1,5,2): (1,4,2) -0.151681 (1,5,1) -0.580350 (1,5,3) 1.44142 (1,6,2) -0.436820
(1,5,3): (1,4,3) -0.554001 (1,5,2) -1.44142 (1,5,4) 2.87711 (1,6,3) -0.570761
(1,5,4): (1,4,4) -1.75198 (1,5,3) -2.87711 (1,5,5) 4.58662 (1,6,4) 0.392536
(1,5,5): (1,4,5) -4.39338 (1,5,4) -4.58662 (1,5,6) 1.09040 (1,6,5) 8.26440
(1,5,6): (1,4,6) -4.81460 (1,5,5) -1.09040 (1,5,7) -1.04802 (1,6,6) 7.34842
(1,5,7): (1,4,7) -4.39418 (1,5,6) 1.04802 (1,5,8) -4.51591 (1,6,7) 8.25372
(1,5,8): (1,4,8) -1.75331 (1,5,7) 4.51591 (1,5,9) -2.73626 (1,6,8) 0.361269
(1,5,9): (1,4,9) -0.560225 (1,5,8) 2.73626 (1,5,10) -1.15444 (1,6,9) -0.647267
(1,5,10): (1,4,10) -0.183836 (1,5,9) 1.15444 (1,6,10) -0.606522
(1,6,1): (1,5,1) 0.287924 (1,6,2) 0.431248 (1,7,1) -0.588560
(1,6,2): (1,5,2) 0.436820 (1,6,1) -0.431248 (1,6,3) 1.30643 (1,7,2) -1.18553
(1,6,3): (1,5,3) 0.570761 (1,6,2) -1.30643 (1,6,4) 3.86764 (1,7,3) -3.00984
(1,6,4): (1,5,4) -0.392536 (1,6,3) -3.86764 (1,6,5) 12.7134 (1,7,4) -8.32855
(1,6,5): (1,5,5) -8.26440 (1,6,4) -12.7134 (1,6,6) 0.222733 (1,7,5) -25.7770
(1,6,6): (1,5,6) -7.34842 (1,6,5) -0.222733 (1,6,7) -0.190591 (1,7,6) -38.7457
(1,6,7): (1,5,7) -8.25372 (1,6,6) 0.190591 (1,6,8) -12.6616 (1,7,7) -25.7971
(1,6,8): (1,5,8) -0.361269 (1,6,7) 12.6616 (1,6,9) -3.77197 (1,7,8) -8.38206
(1,6,9): (1,5,9) 0.647267 (1,6,8) 3.77197 (1,6,10) -1.11353 (1,7,9) -3.15181
(1,6,10): (1,5,10) 0.606522 (1,6,9) 1.11353 (1,7,10) -1.55753
(1,7,1): (1,6,1) 0.588560 (1,7,2) -0.161598 (1,8,1) -0.443067
(1,7,2): (1,6,2) 1.18553 (1,7,1) 0.161598 (1,7,3) -0.490888 (1,8,2) -0.910698
(1,7,3): (1,6,3) 3.00984 (1,7,2) 0.490888 (1,7,4) -1.26033 (1,8,3) -2.35088
(1,7,4): (1,6,4) 8.32855 (1,7,3) 1.26033 (1,7,5) -3.25888 (1,8,4) -6.47310
(1,7,5): (1,6,5) 25.7770 (1,7,4) 3.25888 (1,7,6) -10.2910 (1,8,5) -18.8537
(1,7,6): (1,6,6) 38.7457 (1,7,5) 10.2910 (1,7,7) 10.3072 (1,8,6) -59.3699
(1,7,7): (1,6,7) 25.7971 (1,7,6) -10.3072 (1,7,8) 3.27364 (1,8,7) -18.8681
(1,7,8): (1,6,8) 8.38206 (1,7,7) -3.27364 (1,7,9) 1.26473 (1,8,8) -6.51237
(1,7,9): (1,6,9) 3.15181 (1,7,8) -1.26473 (1,7,10) 0.452220 (1,8,9) -2.45631
(1,7,10): (1,6,10) 1.55753 (1,7,9) -0.452220 (1,8,10) -1.19197
(1,8,1): (1,7,1) 0.443067 (1,8,2) -0.627911 (1,9,1) 4.210221E-02
(1,8,2): (1,7,2) 0.910698 (1,8,1) 0.627911 (1,8,3) -1.92496 (1,9,2) 0.166223
(1,8,3): (1,7,3) 2.35088 (1,8,2) 1.92496 (1,8,4) -5.33616 (1,9,3) 0.714195
(1,8,4): (1,7,4) 6.47310 (1,8,3) 5.33616 (1,8,5) -15.2046 (1,9,4) 2.93715
(1,8,5): (1,7,5) 18.8537 (1,8,4) 15.2046 (1,8,6) -46.2211 (1,9,5) 11.7083
(1,8,6): (1,7,6) 59.3699 (1,8,5) 46.2211 (1,8,7) 46.2257 (1,9,6) 47.8708
(1,8,7): (1,7,7) 18.8681 (1,8,6) -46.2257 (1,8,8) 15.1921 (1,9,7) 11.7085
(1,8,8): (1,7,8) 6.51237 (1,8,7) -15.1921 (1,8,9) 5.27092 (1,9,8) 2.93770
(1,8,9): (1,7,9) 2.45631 (1,8,8) -5.27092 (1,8,10) 1.70711 (1,9,9) 0.720169
(1,8,10): (1,7,10) 1.19197 (1,8,9) -1.70711 (1,9,10) 0.199779
(1,9,1): (1,8,1) -4.210221E-02 (1,9,2) -0.503210 (1,10,1) 0.342051
(1,9,2): (1,8,2) -0.166223 (1,9,1) 0.503210 (1,9,3) -1.37016 (1,10,2) 0.719887
(1,9,3): (1,8,3) -0.714195 (1,9,2) 1.37016 (1,9,4) -3.05640 (1,10,3) 1.88906
(1,9,4): (1,8,4) -2.93715 (1,9,3) 3.05640 (1,9,5) -6.09435 (1,10,4) 5.22583
(1,9,5): (1,8,5) -11.7083 (1,9,4) 6.09435 (1,9,6) -10.6521 (1,10,5) 15.3162
(1,9,6): (1,8,6) -47.8708 (1,9,5) 10.6521 (1,9,7) 10.6552 (1,10,6) 25.5955
(1,9,7): (1,8,7) -11.7085 (1,9,6) -10.6552 (1,9,8) 6.08354 (1,10,7) 15.3254
(1,9,8): (1,8,8) -2.93770 (1,9,7) -6.08354 (1,9,9) 2.99823 (1,10,8) 5.25383
(1,9,9): (1,8,9) -0.720169 (1,9,8) -2.99823 (1,9,10) 1.18141 (1,10,9) 1.96835
(1,9,10): (1,8,10) -0.199779 (1,9,9) -1.18141 (1,10,10) 0.938566
(1,10,1): (1,9,1) -0.342051 (1,10,2) -0.126191 (1,11,1) 0.288723
(1,10,2): (1,9,2) -0.719887 (1,10,1) 0.126191 (1,10,3) -0.207010 (1,11,2) 0.502857
(1,10,3): (1,9,3) -1.88906 (1,10,2) 0.207010 (1,10,4) 0.210568 (1,11,3) 0.947551
(1,10,4): (1,9,4) -5.22583 (1,10,3) -0.210568 (1,10,5) 3.28735 (1,11,4) 1.31364
(1,10,5): (1,9,5) -15.3162 (1,10,4) -3.28735 (1,10,6) -1.74018 (1,11,5) -0.806061
(1,10,6): (1,9,6) -25.5955 (1,10,5) 1.74018 (1,10,7) 1.75120 (1,11,6) 0.853492
(1,10,7): (1,9,7) -15.3254 (1,10,6) -1.75120 (1,10,8) -3.27870 (1,11,7) -0.797280
(1,10,8): (1,9,8) -5.25383 (1,10,7) 3.27870 (1,10,9) -0.215809 (1,11,8) 1.34071
(1,10,9): (1,9,9) -1.96835 (1,10,8) 0.215809 (1,10,10) 0.159696 (1,11,9) 1.01946
(1,10,10): (1,9,10) -0.938566 (1,10,9) -0.159696 (1,11,10) 0.678987
(1,11,1): (1,10,1) -0.288723 (1,11,2) 8.722078E-02 (1,12,1) 0.107476
(1,11,2): (1,10,2) -0.502857 (1,11,1) -8.722078E-02 (1,11,3) 0.234993 (1,12,2) 0.164892
(1,11,3): (1,10,3) -0.947551 (1,11,2) -0.234993 (1,11,4) 0.574054 (1,12,3) 0.233956
(1,11,4): (1,10,4) -1.31364 (1,11,3) -0.574054 (1,11,5) 1.13444 (1,12,4) 0.135585
(1,11,5): (1,10,5) 0.806061 (1,11,4) -1.13444 (1,11,6) -7.294606E-02 (1,12,5) -0.449951
(1,11,6): (1,10,6) -0.853492 (1,11,5) 7.294606E-02 (1,11,7) 9.252053E-02 (1,12,6) -0.245321
(1,11,7): (1,10,7) 0.797280 (1,11,6) -9.252053E-02 (1,11,8) -1.10777 (1,12,7) -0.446712
(1,11,8): (1,10,8) -1.34071 (1,11,7) 1.10777 (1,11,9) -0.534574 (1,12,8) 0.146229
(1,11,9): (1,10,9) -1.01946 (1,11,8) 0.534574 (1,11,10) -0.178215 (1,12,9) 0.262418
(1,11,10): (1,10,10) -0.678987 (1,11,9) 0.178215 (1,12,10) 0.230348
(1,12,1): (1,11,1) -0.107476 (1,12,2) 0.144625 (1,13,1) -3.182509E-02
(1,12,2): (1,11,2) -0.164892 (1,12,1) -0.144625 (1,12,3) 0.304104 (1,13,2) -4.863381E-02
(1,12,3): (1,11,3) -0.233956 (1,12,2) -0.304104 (1,12,4) 0.475354 (1,13,3) -0.105979
(1,12,4): (1,11,4) -0.135585 (1,12,3) -0.475354 (1,12,5) 0.545249 (1,13,4) -0.252106
(1,12,5): (1,11,5) 0.449951 (1,12,4) -0.545249 (1,12,6) 0.131113 (1,13,5) -0.488489
(1,12,6): (1,11,6) 0.245321 (1,12,5) -0.131113 (1,12,7) -0.108303 (1,13,6) -0.508136
(1,12,7): (1,11,7) 0.446712 (1,12,6) 0.108303 (1,12,8) -0.511288 (1,13,7) -0.490462
(1,12,8): (1,11,8) -0.146229 (1,12,7) 0.511288 (1,12,9) -0.418075 (1,13,8) -0.256425
(1,12,9): (1,11,9) -0.262418 (1,12,8) 0.418075 (1,12,10) -0.210269 (1,13,9) -0.113611
(1,12,10): (1,11,10) -0.230348 (1,12,9) 0.210269 (1,13,10) -6.238551E-02
(1,13,1): (1,12,1) 3.182509E-02 (1,13,2) 0.127800 (1,14,1) -8.028411E-02
(1,13,2): (1,12,2) 4.863381E-02 (1,13,1) -0.127800 (1,13,3) 0.246647 (1,14,2) -0.113564
(1,13,3): (1,12,3) 0.105979 (1,13,2) -0.246647 (1,13,4) 0.328912 (1,14,3) -0.185644
(1,13,4): (1,12,4) 0.252106 (1,13,3) -0.328912 (1,13,5) 0.308738 (1,14,4) -0.298399
(1,13,5): (1,12,5) 0.488489 (1,13,4) -0.308738 (1,13,6) 0.111535 (1,14,5) -0.420187
(1,13,6): (1,12,6) 0.508136 (1,13,5) -0.111535 (1,13,7) -9.069606E-02 (1,14,6) -0.456998
(1,13,7): (1,12,7) 0.490462 (1,13,6) 9.069606E-02 (1,13,8) -0.277203 (1,14,7) -0.424166
(1,13,8): (1,12,8) 0.256425 (1,13,7) 0.277203 (1,13,9) -0.275038 (1,14,8) -0.308465
(1,13,9): (1,12,9) 0.113611 (1,13,8) 0.275038 (1,13,10) -0.158995 (1,14,9) -0.206602
(1,13,10): (1,12,10) 6.238551E-02 (1,13,9) 0.158995 (1,14,10) -0.153972
(1,14,1): (1,13,1) 8.028411E-02 (1,14,2) 9.451590E-02 (1,15,1) -5.739042E-02
(1,14,2): (1,13,2) 0.113564 (1,14,1) -9.451590E-02 (1,14,3) 0.174524 (1,15,2) -7.906588E-02
(1,14,3): (1,13,3) 0.185644 (1,14,2) -0.174524 (1,14,4) 0.216123 (1,15,3) -0.122084
(1,14,4): (1,13,4) 0.298399 (1,14,3) -0.216123 (1,14,5) 0.187080 (1,15,4) -0.180967
(1,14,5): (1,13,5) 0.420187 (1,14,4) -0.187080 (1,14,6) 7.484591E-02 (1,15,5) -0.236534
(1,14,6): (1,13,6) 0.456998 (1,14,5) -7.484591E-02 (1,14,7) -5.797987E-02 (1,15,6) -0.257226
(1,14,7): (1,13,7) 0.424166 (1,14,6) 5.797987E-02 (1,14,8) -0.161666 (1,15,7) -0.239374
(1,14,8): (1,13,8) 0.308465 (1,14,7) 0.161666 (1,14,9) -0.173207 (1,15,8) -0.188238
(1,14,9): (1,13,9) 0.206602 (1,14,8) 0.173207 (1,14,10) -0.106390 (1,15,9) -0.137303
(1,14,10): (1,13,10) 0.153972 (1,14,9) 0.106390 (1,15,10) -0.108059
(1,15,1): (1,14,1) 5.739042E-02 (1,15,2) 7.283713E-02
(1,15,2): (1,14,2) 7.906588E-02 (1,15,1) -7.283713E-02 (1,15,3) 0.131484
(1,15,3): (1,14,3) 0.122084 (1,15,2) -0.131484 (1,15,4) 0.157220
(1,15,4): (1,14,4) 0.180967 (1,15,3) -0.157220 (1,15,5) 0.131540
(1,15,5): (1,14,5) 0.236534 (1,15,4) -0.131540 (1,15,6) 5.419120E-02
(1,15,6): (1,14,6) 0.257226 (1,15,5) -5.419120E-02 (1,15,7) -4.016294E-02
(1,15,7): (1,14,7) 0.239374 (1,15,6) 4.016294E-02 (1,15,8) -0.110569
(1,15,8): (1,14,8) 0.188238 (1,15,7) 0.110569 (1,15,9) -0.122280
(1,15,9): (1,14,9) 0.137303 (1,15,8) 0.122280 (1,15,10) -7.715451E-02
(1,15,10): (1,14,10) 0.108059 (1,15,9) 7.715451E-02

 WEL PACKAGE (WEL-1) FLOW RATES   PERIOD      2   STEP       92
 ----------------------------------------------------------------------------------------
   NUMBER   CELLID                    RATE       NAME                                    
 ----------------------------------------------------------------------------------------
     1      (1,8,6)              -199.81469      WEL                                     
 ----------------------------------------------------------------------------------------




 API PACKAGE (MAR) FLOW RATES   PERIOD      2   STEP       92
 -----------------------------------------------
   NUMBER   CELLID                    RATE      
 -----------------------------------------------
     1      (1,6,5)               46.666667     
     2      (1,6,6)               46.666667     
     3      (1,6,7)               46.666667     
     4      (1,10,5)              19.938231     
     5      (1,10,6)              19.938231     
     6      (1,10,7)              19.938231     
 -----------------------------------------------



1
  HEAD IN LAYER   1 AT END OF TIME STEP  92 IN STRESS PERIOD    2
  ---------------------------------------------------------------------------

            1           2           3           4           5           6           7           8           9          10
 ........................................................................................................................
   1   3.8107E-02  5.0908E-02  7.4663E-02  0.1041      0.1296      0.1402      0.1316      0.1091      8.4916E-02  6.9994E-02
   2   5.0295E-02  6.9148E-02  0.1053      0.1523      0.1949      0.2123      0.1973      0.1586      0.1187      9.4851E-02
   3   7.1186E-02  0.1020      0.1642      0.2515      0.3376      0.3715      0.3409      0.2601      0.1829      0.1393    
   4   9.1708E-02  0.1382      0.2394      0.3997      0.5831      0.6470      0.5870      0.4101      0.2629      0.1873    
   5   9.6006E-02  0.1532      0.2932      0.5655      0.9831       1.082      0.9869      0.5759      0.3172      0.2053    
   6   6.7488E-02  0.1101      0.2378      0.6025       1.690       1.709       1.693      0.6100      0.2545      0.1459    
   7   9.0262E-03 -7.1190E-03 -5.6243E-02 -0.1830     -0.5150      -1.600     -0.5134     -0.1800     -5.2903E-02 -7.6468E-03
   8  -3.5240E-02 -9.8254E-02 -0.2927     -0.8424      -2.503      -8.668      -2.502     -0.8432     -0.2998     -0.1269    
   9  -3.1017E-02 -8.1495E-02 -0.2196     -0.5321      -1.176      -2.383      -1.176     -0.5329     -0.2262     -0.1067    
  10   3.1770E-03 -9.4380E-03 -3.0159E-02 -9.0827E-03  0.3098      0.1410      0.3108     -7.1590E-03 -2.8755E-02 -1.2765E-02
  11   3.1957E-02  4.0644E-02  6.3994E-02  0.1207      0.2316      0.2245      0.2335      0.1253      7.2457E-02  5.4764E-02
  12   4.2659E-02  5.7040E-02  8.7187E-02  0.1341      0.1876      0.2005      0.1899      0.1397      9.8443E-02  7.7621E-02
  13   3.9490E-02  5.2204E-02  7.6681E-02  0.1092      0.1397      0.1507      0.1417      0.1144      8.7193E-02  7.1430E-02
  14   3.1493E-02  4.0907E-02  5.8258E-02  7.9699E-02  9.8225E-02  0.1056      9.9894E-02  8.3888E-02  6.6711E-02  5.6142E-02
  15   2.5772E-02  3.3032E-02  4.6120E-02  6.1746E-02  7.4802E-02  8.0178E-02  7.6194E-02  6.5220E-02  5.3072E-02  4.5397E-02

 HEAD WILL BE SAVED ON UNIT 1043 AT END OF TIME STEP   92, STRESS PERIOD    2


  VOLUME BUDGET FOR ENTIRE MODEL AT END OF TIME STEP   92, STRESS PERIOD   2
  ---------------------------------------------------------------------------------------------------

     CUMULATIVE VOLUME      L**3       RATES FOR THIS TIME STEP      L**3/T          PACKAGE NAME    
     ------------------                 ------------------------                     ----------------

           IN:                                      IN:
           ---                                      ---
              STO-SS =          27.5747                STO-SS =       1.2766E-02     STORAGE                          
              STO-SY =       64637.5106                STO-SY =          26.3435     STORAGE                          
                 WEL =           0.0000                   WEL =           0.0000     WEL-1                            
                 API =      203975.4346                   API =         199.8147     MAR                              
                 CHD =       2.8247E-08                   CHD =           0.0000     CHD_0                            

            TOTAL IN =      268640.5200              TOTAL IN =         226.1710

          OUT:                                     OUT:
          ----                                     ----
              STO-SS =          33.4942                STO-SS =       1.3533E-02     STORAGE                          
              STO-SY =       64631.5912                STO-SY =          26.3428     STORAGE                          
                 WEL =      203975.4346                   WEL =         199.8147     WEL-1                            
                 API =           0.0000                   API =           0.0000     MAR                              
                 CHD =       3.0388E-08                   CHD =           0.0000     CHD_0                            

           TOTAL OUT =      268640.5200             TOTAL OUT =         226.1710

            IN - OUT =       4.3201E-06              IN - OUT =       9.1718E-09

 PERCENT DISCREPANCY =           0.00     PERCENT DISCREPANCY =           0.00




         TIME SUMMARY AT END OF TIME STEP   92 IN STRESS PERIOD    2
                    SECONDS     MINUTES      HOURS       DAYS        YEARS
                    -----------------------------------------------------------
   TIME STEP LENGTH 8.64000E+05  14400.      240.00      10.000     2.73785E-02
 STRESS PERIOD TIME 7.94880E+07 1.32480E+06  22080.      920.00      2.5188    
         TOTAL TIME 7.95744E+07 1.32624E+06  22104.      921.00      2.5216    


end timestep


start timestep kper="2" kstp="93" mode="normal"

 UBDSV1 SAVING           STO-SS ON UNIT   1042 AT TIME STEP     93, STRESS PERIOD      2
 UBDSV1 SAVING           STO-SY ON UNIT   1042 AT TIME STEP     93, STRESS PERIOD      2
 UBDSV1 SAVING     FLOW-JA-FACE ON UNIT   1042 AT TIME STEP     93, STRESS PERIOD      2
 UBDSV06 SAVING       DATA-SPDIS IN MODEL GWF              PACKAGE NPF             CONNECTED TO MODEL GWF              PACKAGE NPF              ON UNIT   1042 AT TIME STEP     93, STRESS PERIOD      2
 UBDSV06 SAVING              WEL IN MODEL GWF              PACKAGE GWF             CONNECTED TO MODEL GWF              PACKAGE WEL-1            ON UNIT   1042 AT TIME STEP     93, STRESS PERIOD      2
 UBDSV06 SAVING              API IN MODEL GWF              PACKAGE GWF             CONNECTED TO MODEL GWF              PACKAGE MAR              ON UNIT   1042 AT TIME STEP     93, STRESS PERIOD      2
 UBDSV06 SAVING              CHD IN MODEL GWF              PACKAGE GWF             CONNECTED TO MODEL GWF              PACKAGE CHD_0            ON UNIT   1042 AT TIME STEP     93, STRESS PERIOD      2

    CALCULATED INTERCELL FLOW FOR PERIOD 2 STEP 93
(1,1,1): (1,1,2) 0.130830 (1,2,1) 0.123802
(1,1,2): (1,1,1) -0.130830 (1,1,3) 0.243021 (1,2,2) 0.185108
(1,1,3): (1,1,2) -0.243021 (1,1,4) 0.301854 (1,2,3) 0.311035
(1,1,4): (1,1,3) -0.301854 (1,1,5) 0.261639 (1,2,4) 0.490496
(1,1,5): (1,1,4) -0.261639 (1,1,6) 0.108313 (1,2,5) 0.667333
(1,1,6): (1,1,5) -0.108313 (1,1,7) -8.790531E-02 (1,2,6) 0.738822
(1,1,7): (1,1,6) 8.790531E-02 (1,1,8) -0.230098 (1,2,7) 0.672791
(1,1,8): (1,1,7) 0.230098 (1,1,9) -0.246745 (1,2,8) 0.505104
(1,1,9): (1,1,8) 0.246745 (1,1,10) -0.152192 (1,2,9) 0.343784
(1,1,10): (1,1,9) 0.152192 (1,2,10) 0.252883
(1,2,1): (1,1,1) -0.123802 (1,2,2) 0.192140 (1,3,1) 0.211881
(1,2,2): (1,1,2) -0.185108 (1,2,1) -0.192140 (1,2,3) 0.369019 (1,3,2) 0.333660
(1,2,3): (1,1,3) -0.311035 (1,2,2) -0.369019 (1,2,4) 0.481300 (1,3,3) 0.600560
(1,2,4): (1,1,4) -0.490496 (1,2,3) -0.481300 (1,2,5) 0.438091 (1,3,4) 1.01931
(1,2,5): (1,1,5) -0.667333 (1,2,4) -0.438091 (1,2,6) 0.179425 (1,3,5) 1.47745
(1,2,6): (1,1,6) -0.738822 (1,2,5) -0.179425 (1,2,7) -0.153571 (1,3,6) 1.65308
(1,2,7): (1,1,7) -0.672791 (1,2,6) 0.153571 (1,2,8) -0.397346 (1,3,7) 1.48633
(1,2,8): (1,1,8) -0.505104 (1,2,7) 0.397346 (1,2,9) -0.407914 (1,3,8) 1.04328
(1,2,9): (1,1,9) -0.343784 (1,2,8) 0.407914 (1,2,10) -0.243005 (1,3,9) 0.655634
(1,2,10): (1,1,10) -0.252883 (1,2,9) 0.243005 (1,3,10) 0.452584
(1,3,1): (1,2,1) -0.211881 (1,3,2) 0.313895 (1,4,1) 0.207033
(1,3,2): (1,2,2) -0.333660 (1,3,1) -0.313895 (1,3,3) 0.636011 (1,4,2) 0.366674
(1,3,3): (1,2,3) -0.600560 (1,3,2) -0.636011 (1,3,4) 0.899581 (1,4,3) 0.768910
(1,3,4): (1,2,4) -1.01931 (1,3,3) -0.899581 (1,3,5) 0.893769 (1,4,4) 1.53948
(1,3,5): (1,2,5) -1.47745 (1,3,4) -0.893769 (1,3,6) 0.352996 (1,4,5) 2.59587
(1,3,6): (1,2,6) -1.65308 (1,3,5) -0.352996 (1,3,7) -0.318308 (1,4,6) 2.93150
(1,3,7): (1,2,7) -1.48633 (1,3,6) 0.318308 (1,3,8) -0.837764 (1,4,7) 2.60372
(1,3,8): (1,2,8) -1.04328 (1,3,7) 0.837764 (1,3,9) -0.794652 (1,4,8) 1.56071
(1,3,9): (1,2,9) -0.655634 (1,3,8) 0.794652 (1,3,10) -0.445648 (1,4,9) 0.820256
(1,3,10): (1,2,10) -0.452584 (1,3,9) 0.445648 (1,4,10) 0.488397
(1,4,1): (1,3,1) -0.207033 (1,4,2) 0.473700 (1,5,1) 4.037959E-02
(1,4,2): (1,3,2) -0.366674 (1,4,1) -0.473700 (1,4,3) 1.03927 (1,5,2) 0.147804
(1,4,3): (1,3,3) -0.768910 (1,4,2) -1.03927 (1,4,4) 1.67107 (1,5,3) 0.548698
(1,4,4): (1,3,4) -1.53948 (1,4,3) -1.67107 (1,4,5) 1.94417 (1,5,4) 1.74519
(1,4,5): (1,3,5) -2.59587 (1,4,4) -1.94417 (1,4,6) 0.682279 (1,5,5) 4.38539
(1,4,6): (1,3,6) -2.93150 (1,4,5) -0.682279 (1,4,7) -0.639763 (1,5,6) 4.80636
(1,4,7): (1,3,7) -2.60372 (1,4,6) 0.639763 (1,4,8) -1.87416 (1,5,7) 4.38603
(1,4,8): (1,3,8) -1.56071 (1,4,7) 1.87416 (1,4,9) -1.53493 (1,5,8) 1.74609
(1,4,9): (1,3,9) -0.820256 (1,4,8) 1.53493 (1,4,10) -0.777374 (1,5,9) 0.554047
(1,4,10): (1,3,10) -0.488397 (1,4,9) 0.777374 (1,5,10) 0.178388
(1,5,1): (1,4,1) -4.037959E-02 (1,5,2) 0.581576 (1,6,1) -0.293925
(1,5,2): (1,4,2) -0.147804 (1,5,1) -0.581576 (1,5,3) 1.44354 (1,6,2) -0.444242
(1,5,3): (1,4,3) -0.548698 (1,5,2) -1.44354 (1,5,4) 2.87957 (1,6,3) -0.580440
(1,5,4): (1,4,4) -1.74519 (1,5,3) -2.87957 (1,5,5) 4.58870 (1,6,4) 0.380807
(1,5,5): (1,4,5) -4.38539 (1,5,4) -4.58870 (1,5,6) 1.09171 (1,6,5) 8.25108
(1,5,6): (1,4,6) -4.80636 (1,5,5) -1.09171 (1,5,7) -1.04839 (1,6,6) 7.33534
(1,5,7): (1,4,7) -4.38603 (1,5,6) 1.04839 (1,5,8) -4.51689 (1,6,7) 8.24003
(1,5,8): (1,4,8) -1.74609 (1,5,7) 4.51689 (1,5,9) -2.73741 (1,6,8) 0.348683
(1,5,9): (1,4,9) -0.554047 (1,5,8) 2.73741 (1,5,10) -1.15514 (1,6,9) -0.658627
(1,5,10): (1,4,10) -0.178388 (1,5,9) 1.15514 (1,6,10) -0.616834
(1,6,1): (1,5,1) 0.293925 (1,6,2) 0.431060 (1,7,1) -0.595941
(1,6,2): (1,5,2) 0.444242 (1,6,1) -0.431060 (1,6,3) 1.30628 (1,7,2) -1.19466
(1,6,3): (1,5,3) 0.580440 (1,6,2) -1.30628 (1,6,4) 3.86800 (1,7,3) -3.02174
(1,6,4): (1,5,4) -0.380807 (1,6,3) -3.86800 (1,6,5) 12.7147 (1,7,4) -8.34296
(1,6,5): (1,5,5) -8.25108 (1,6,4) -12.7147 (1,6,6) 0.224165 (1,7,5) -25.7924
(1,6,6): (1,5,6) -7.33534 (1,6,5) -0.224165 (1,6,7) -0.191429 (1,7,6) -38.7589
(1,6,7): (1,5,7) -8.24003 (1,6,6) 0.191429 (1,6,8) -12.6623 (1,7,7) -25.8130
(1,6,8): (1,5,8) -0.348683 (1,6,7) 12.6623 (1,6,9) -3.77184 (1,7,8) -8.39752
(1,6,9): (1,5,9) 0.658627 (1,6,8) 3.77184 (1,6,10) -1.11318 (1,7,9) -3.16574
(1,6,10): (1,5,10) 0.616834 (1,6,9) 1.11318 (1,7,10) -1.57016
(1,7,1): (1,6,1) 0.595941 (1,7,2) -0.163469 (1,8,1) -0.449380
(1,7,2): (1,6,2) 1.19466 (1,7,1) 0.163469 (1,7,3) -0.493593 (1,8,2) -0.918882
(1,7,3): (1,6,3) 3.02174 (1,7,2) 0.493593 (1,7,4) -1.26181 (1,8,3) -2.36230
(1,7,4): (1,6,4) 8.34296 (1,7,3) 1.26181 (1,7,5) -3.25698 (1,8,4) -6.48784
(1,7,5): (1,6,5) 25.7924 (1,7,4) 3.25698 (1,7,6) -10.2866 (1,8,5) -18.8687
(1,7,6): (1,6,6) 38.7589 (1,7,5) 10.2866 (1,7,7) 10.3030 (1,8,6) -59.3732
(1,7,7): (1,6,7) 25.8130 (1,7,6) -10.3030 (1,7,8) 3.27171 (1,8,7) -18.8835
(1,7,8): (1,6,8) 8.39752 (1,7,7) -3.27171 (1,7,9) 1.26568 (1,8,8) -6.52795
(1,7,9): (1,6,9) 3.16574 (1,7,8) -1.26568 (1,7,10) 0.453648 (1,8,9) -2.46945
(1,7,10): (1,6,10) 1.57016 (1,7,9) -0.453648 (1,8,10) -1.20325
(1,8,1): (1,7,1) 0.449380 (1,8,2) -0.631627 (1,9,1) 3.904730E-02
(1,8,2): (1,7,2) 0.918882 (1,8,1) 0.631627 (1,8,3) -1.93082 (1,9,2) 0.161569
(1,8,3): (1,7,3) 2.36230 (1,8,2) 1.93082 (1,8,4) -5.34049 (1,9,3) 0.705989
(1,8,4): (1,7,4) 6.48784 (1,8,3) 5.34049 (1,8,5) -15.2006 (1,9,4) 2.92241
(1,8,5): (1,7,5) 18.8687 (1,8,4) 15.2006 (1,8,6) -46.1954 (1,9,5) 11.6807
(1,8,6): (1,7,6) 59.3732 (1,8,5) 46.1954 (1,8,7) 46.1998 (1,9,6) 47.8096
(1,8,7): (1,7,7) 18.8835 (1,8,6) -46.1998 (1,8,8) 15.1876 (1,9,7) 11.6807
(1,8,8): (1,7,8) 6.52795 (1,8,7) -15.1876 (1,8,9) 5.27377 (1,9,8) 2.92260
(1,8,9): (1,7,9) 2.46945 (1,8,8) -5.27377 (1,8,10) 1.71026 (1,9,9) 0.711149
(1,8,10): (1,7,10) 1.20325 (1,8,9) -1.71026 (1,9,10) 0.193426
(1,9,1): (1,8,1) -3.904730E-02 (1,9,2) -0.508523 (1,10,1) 0.343132
(1,9,2): (1,8,2) -0.161569 (1,9,1) 0.508523 (1,9,3) -1.37953 (1,10,2) 0.720464
(1,9,3): (1,8,3) -0.705989 (1,9,2) 1.37953 (1,9,4) -3.06694 (1,10,3) 1.88786
(1,9,4): (1,8,4) -2.92241 (1,9,3) 3.06694 (1,9,5) -6.10122 (1,10,4) 5.21934
(1,9,5): (1,8,5) -11.6807 (1,9,4) 6.10122 (1,9,6) -10.6472 (1,10,5) 15.2941
(1,9,6): (1,8,6) -47.8096 (1,9,5) 10.6472 (1,9,7) 10.6501 (1,10,6) 25.5620
(1,9,7): (1,8,7) -11.6807 (1,9,6) -10.6501 (1,9,8) 6.08962 (1,10,7) 15.3033
(1,9,8): (1,8,8) -2.92260 (1,9,7) -6.08962 (1,9,9) 3.00686 (1,10,8) 5.24754
(1,9,9): (1,8,9) -0.711149 (1,9,8) -3.00686 (1,9,10) 1.18719 (1,10,9) 1.96744
(1,9,10): (1,8,10) -0.193426 (1,9,9) -1.18719 (1,10,10) 0.939410
(1,10,1): (1,9,1) -0.343132 (1,10,2) -0.131989 (1,11,1) 0.292928
(1,10,2): (1,9,2) -0.720464 (1,10,1) 0.131989 (1,10,3) -0.218034 (1,11,2) 0.508095
(1,10,3): (1,9,3) -1.88786 (1,10,2) 0.218034 (1,10,4) 0.195293 (1,11,3) 0.954682
(1,10,4): (1,9,4) -5.21934 (1,10,3) -0.195293 (1,10,5) 3.26654 (1,11,4) 1.32392
(1,10,5): (1,9,5) -15.2941 (1,10,4) -3.26654 (1,10,6) -1.74424 (1,11,5) -0.787574
(1,10,6): (1,9,6) -25.5620 (1,10,5) 1.74424 (1,10,7) 1.75509 (1,11,6) 0.871904
(1,10,7): (1,9,7) -15.3033 (1,10,6) -1.75509 (1,10,8) -3.25852 (1,11,7) -0.778572
(1,10,8): (1,9,8) -5.24754 (1,10,7) 3.25852 (1,10,9) -0.202268 (1,11,8) 1.35154
(1,10,9): (1,9,9) -1.96744 (1,10,8) 0.202268 (1,10,10) 0.167145 (1,11,9) 1.02772
(1,10,10): (1,9,10) -0.939410 (1,10,9) -0.167145 (1,11,10) 0.686211
(1,11,1): (1,10,1) -0.292928 (1,11,2) 8.244493E-02 (1,12,1) 0.112453
(1,11,2): (1,10,2) -0.508095 (1,11,1) -8.244493E-02 (1,11,3) 0.225823 (1,12,2) 0.171667
(1,11,3): (1,10,3) -0.954682 (1,11,2) -0.225823 (1,11,4) 0.561823 (1,12,3) 0.244143
(1,11,4): (1,10,4) -1.32392 (1,11,3) -0.561823 (1,11,5) 1.12229 (1,12,4) 0.150433
(1,11,5): (1,10,5) 0.787574 (1,11,4) -1.12229 (1,11,6) -7.702199E-02 (1,12,5) -0.429856
(1,11,6): (1,10,6) -0.871904 (1,11,5) 7.702199E-02 (1,11,7) 9.665111E-02 (1,12,6) -0.223701
(1,11,7): (1,10,7) 0.778572 (1,11,6) -9.665111E-02 (1,11,8) -1.09592 (1,12,7) -0.426388
(1,11,8): (1,10,8) -1.35154 (1,11,7) 1.09592 (1,11,9) -0.523515 (1,12,8) 0.161696
(1,11,9): (1,10,9) -1.02772 (1,11,8) 0.523515 (1,11,10) -0.171773 (1,12,9) 0.273955
(1,11,10): (1,10,10) -0.686211 (1,11,9) 0.171773 (1,12,10) 0.239715
(1,12,1): (1,11,1) -0.112453 (1,12,2) 0.141641 (1,13,1) -2.805482E-02
(1,12,2): (1,11,2) -0.171667 (1,12,1) -0.141641 (1,12,3) 0.298337 (1,13,2) -4.318344E-02
(1,12,3): (1,11,3) -0.244143 (1,12,2) -0.298337 (1,12,4) 0.467820 (1,13,3) -9.738298E-02
(1,12,4): (1,11,4) -0.150433 (1,12,3) -0.467820 (1,12,5) 0.538374 (1,13,4) -0.239485
(1,12,5): (1,11,5) 0.429856 (1,12,4) -0.538374 (1,12,6) 0.128597 (1,13,5) -0.472143
(1,12,6): (1,11,6) 0.223701 (1,12,5) -0.128597 (1,12,7) -0.105504 (1,13,6) -0.490394
(1,12,7): (1,11,7) 0.426388 (1,12,6) 0.105504 (1,12,8) -0.504319 (1,13,7) -0.473968
(1,12,8): (1,11,8) -0.161696 (1,12,7) 0.504319 (1,12,9) -0.410980 (1,13,8) -0.243367
(1,12,9): (1,11,9) -0.273955 (1,12,8) 0.410980 (1,12,10) -0.205991 (1,13,9) -0.103979
(1,12,10): (1,11,10) -0.239715 (1,12,9) 0.205991 (1,13,10) -5.480383E-02
(1,13,1): (1,12,1) 2.805482E-02 (1,13,2) 0.126498 (1,14,1) -7.829616E-02
(1,13,2): (1,12,2) 4.318344E-02 (1,13,1) -0.126498 (1,13,3) 0.244031 (1,14,2) -0.110452
(1,13,3): (1,12,3) 9.738298E-02 (1,13,2) -0.244031 (1,13,4) 0.325403 (1,14,3) -0.180434
(1,13,4): (1,12,4) 0.239485 (1,13,3) -0.325403 (1,13,5) 0.305568 (1,14,4) -0.290564
(1,13,5): (1,12,5) 0.472143 (1,13,4) -0.305568 (1,13,6) 0.110408 (1,14,5) -0.410054
(1,13,6): (1,12,6) 0.490394 (1,13,5) -0.110408 (1,13,7) -8.913731E-02 (1,14,6) -0.445964
(1,13,7): (1,12,7) 0.473968 (1,13,6) 8.913731E-02 (1,13,8) -0.273651 (1,14,7) -0.413975
(1,13,8): (1,12,8) 0.243367 (1,13,7) 0.273651 (1,13,9) -0.271365 (1,14,8) -0.300426
(1,13,9): (1,12,9) 0.103979 (1,13,8) 0.271365 (1,13,10) -0.156767 (1,14,9) -0.200835
(1,13,10): (1,12,10) 5.480383E-02 (1,13,9) 0.156767 (1,14,10) -0.149604
(1,14,1): (1,13,1) 7.829616E-02 (1,14,2) 9.433713E-02 (1,15,1) -5.669502E-02
(1,14,2): (1,13,2) 0.110452 (1,14,1) -9.433713E-02 (1,14,3) 0.174005 (1,15,2) -7.784896E-02
(1,14,3): (1,13,3) 0.180434 (1,14,2) -0.174005 (1,14,4) 0.215235 (1,15,3) -0.119892
(1,14,4): (1,13,4) 0.290564 (1,14,3) -0.215235 (1,14,5) 0.186199 (1,15,4) -0.177562
(1,14,5): (1,13,5) 0.410054 (1,14,4) -0.186199 (1,14,6) 7.461308E-02 (1,15,5) -0.232083
(1,14,6): (1,13,6) 0.445964 (1,14,5) -7.461308E-02 (1,14,7) -5.725781E-02 (1,15,6) -0.252364
(1,14,7): (1,13,7) 0.413975 (1,14,6) 5.725781E-02 (1,14,8) -0.160257 (1,15,7) -0.234914
(1,14,8): (1,13,8) 0.300426 (1,14,7) 0.160257 (1,14,9) -0.171802 (1,15,8) -0.184776
(1,14,9): (1,13,9) 0.200835 (1,14,8) 0.171802 (1,14,10) -0.105559 (1,15,9) -0.134913
(1,14,10): (1,13,10) 0.149604 (1,14,9) 0.105559 (1,15,10) -0.106334
(1,15,1): (1,14,1) 5.669502E-02 (1,15,2) 7.317975E-02
(1,15,2): (1,14,2) 7.784896E-02 (1,15,1) -7.317975E-02 (1,15,3) 0.131940
(1,15,3): (1,14,3) 0.119892 (1,15,2) -0.131940 (1,15,4) 0.157545
(1,15,4): (1,14,4) 0.177562 (1,15,3) -0.157545 (1,15,5) 0.131703
(1,15,5): (1,14,5) 0.232083 (1,15,4) -0.131703 (1,15,6) 5.436713E-02
(1,15,6): (1,14,6) 0.252364 (1,15,5) -5.436713E-02 (1,15,7) -3.984141E-02
(1,15,7): (1,14,7) 0.234914 (1,15,6) 3.984141E-02 (1,15,8) -0.110156
(1,15,8): (1,14,8) 0.184776 (1,15,7) 0.110156 (1,15,9) -0.121944
(1,15,9): (1,14,9) 0.134913 (1,15,8) 0.121944 (1,15,10) -7.698793E-02
(1,15,10): (1,14,10) 0.106334 (1,15,9) 7.698793E-02

 WEL PACKAGE (WEL-1) FLOW RATES   PERIOD      2   STEP       93
 ----------------------------------------------------------------------------------------
   NUMBER   CELLID                    RATE       NAME                                    
 ----------------------------------------------------------------------------------------
     1      (1,8,6)              -199.70247      WEL                                     
 ----------------------------------------------------------------------------------------




 API PACKAGE (MAR) FLOW RATES   PERIOD      2   STEP       93
 -----------------------------------------------
   NUMBER   CELLID                    RATE      
 -----------------------------------------------
     1      (1,6,5)               46.666667     
     2      (1,6,6)               46.666667     
     3      (1,6,7)               46.666667     
     4      (1,10,5)              19.900825     
     5      (1,10,6)              19.900825     
     6      (1,10,7)              19.900825     
 -----------------------------------------------



1
  HEAD IN LAYER   1 AT END OF TIME STEP  93 IN STRESS PERIOD    2
  ---------------------------------------------------------------------------

            1           2           3           4           5           6           7           8           9          10
 ........................................................................................................................
   1   3.9379E-02  5.2394E-02  7.6512E-02  0.1064      0.1322      0.1429      0.1342      0.1115      8.7106E-02  7.2019E-02
   2   5.1696E-02  7.0775E-02  0.1073      0.1547      0.1976      0.2152      0.2002      0.1612      0.1211      9.7064E-02
   3   7.2731E-02  0.1038      0.1664      0.2541      0.3405      0.3745      0.3439      0.2629      0.1854      0.1417    
   4   9.3243E-02  0.1400      0.2414      0.4021      0.5857      0.6498      0.5897      0.4128      0.2653      0.1896    
   5   9.7242E-02  0.1545      0.2947      0.5672      0.9850       1.083      0.9889      0.5778      0.3190      0.2071    
   6   6.8133E-02  0.1108      0.2384      0.6032       1.691       1.710       1.694      0.6107      0.2552      0.1467    
   7   8.9417E-03 -7.3906E-03 -5.6786E-02 -0.1837     -0.5155      -1.600     -0.5139     -0.1807     -5.3482E-02 -8.0803E-03
   8  -3.5956E-02 -9.9347E-02 -0.2944     -0.8446      -2.505      -8.668      -2.505     -0.8455     -0.3018     -0.1285    
   9  -3.2039E-02 -8.3055E-02 -0.2222     -0.5358      -1.180      -2.388      -1.180     -0.5367     -0.2290     -0.1089    
  10   2.2665E-03 -1.0929E-02 -3.2757E-02 -1.3201E-02  0.3038      0.1345      0.3049     -1.1356E-02 -3.1605E-02 -1.4866E-02
  11   3.1467E-02  3.9679E-02  6.2122E-02  0.1177      0.2274      0.2199      0.2293      0.1222      7.0448E-02  5.3391E-02
  12   4.2665E-02  5.6749E-02  8.6328E-02  0.1325      0.1854      0.1980      0.1876      0.1381      9.7579E-02  7.7179E-02
  13   3.9871E-02  5.2455E-02  7.6673E-02  0.1089      0.1390      0.1499      0.1411      0.1141      8.7281E-02  7.1740E-02
  14   3.2073E-02  4.1468E-02  5.8766E-02  8.0119E-02  9.8557E-02  0.1059      0.1003      8.4408E-02  6.7371E-02  5.6886E-02
  15   2.6421E-02  3.3715E-02  4.6847E-02  6.2504E-02  7.5575E-02  8.0968E-02  7.7016E-02  6.6085E-02  5.3970E-02  4.6313E-02

 HEAD WILL BE SAVED ON UNIT 1043 AT END OF TIME STEP   93, STRESS PERIOD    2


  VOLUME BUDGET FOR ENTIRE MODEL AT END OF TIME STEP   93, STRESS PERIOD   2
  ---------------------------------------------------------------------------------------------------

     CUMULATIVE VOLUME      L**3       RATES FOR THIS TIME STEP      L**3/T          PACKAGE NAME    
     ------------------                 ------------------------                     ----------------

           IN:                                      IN:
           ---                                      ---
              STO-SS =          27.7013                STO-SS =       1.2660E-02     STORAGE                          
              STO-SY =       64898.7341                STO-SY =          26.1223     STORAGE                          
                 WEL =           0.0000                   WEL =           0.0000     WEL-1                            
                 API =      205972.4594                   API =         199.7025     MAR                              
                 CHD =       2.8247E-08                   CHD =           0.0000     CHD_0                            

            TOTAL IN =      270898.8947              TOTAL IN =         225.8375

          OUT:                                     OUT:
          ----                                     ----
              STO-SS =          33.6284                STO-SS =       1.3421E-02     STORAGE                          
              STO-SY =       64892.8070                STO-SY =          26.1216     STORAGE                          
                 WEL =      205972.4593                   WEL =         199.7025     WEL-1                            
                 API =           0.0000                   API =           0.0000     MAR                              
                 CHD =       3.0388E-08                   CHD =           0.0000     CHD_0                            

           TOTAL OUT =      270898.8947             TOTAL OUT =         225.8375

            IN - OUT =       4.4102E-06              IN - OUT =       9.0183E-09

 PERCENT DISCREPANCY =           0.00     PERCENT DISCREPANCY =           0.00




         TIME SUMMARY AT END OF TIME STEP   93 IN STRESS PERIOD    2
                    SECONDS     MINUTES      HOURS       DAYS        YEARS
                    -----------------------------------------------------------
   TIME STEP LENGTH 8.64000E+05  14400.      240.00      10.000     2.73785E-02
 STRESS PERIOD TIME 8.03520E+07 1.33920E+06  22320.      930.00      2.5462    
         TOTAL TIME 8.04384E+07 1.34064E+06  22344.      931.00      2.5489    


end timestep


start timestep kper="2" kstp="94" mode="normal"

 UBDSV1 SAVING           STO-SS ON UNIT   1042 AT TIME STEP     94, STRESS PERIOD      2
 UBDSV1 SAVING           STO-SY ON UNIT   1042 AT TIME STEP     94, STRESS PERIOD      2
 UBDSV1 SAVING     FLOW-JA-FACE ON UNIT   1042 AT TIME STEP     94, STRESS PERIOD      2
 UBDSV06 SAVING       DATA-SPDIS IN MODEL GWF              PACKAGE NPF             CONNECTED TO MODEL GWF              PACKAGE NPF              ON UNIT   1042 AT TIME STEP     94, STRESS PERIOD      2
 UBDSV06 SAVING              WEL IN MODEL GWF              PACKAGE GWF             CONNECTED TO MODEL GWF              PACKAGE WEL-1            ON UNIT   1042 AT TIME STEP     94, STRESS PERIOD      2
 UBDSV06 SAVING              API IN MODEL GWF              PACKAGE GWF             CONNECTED TO MODEL GWF              PACKAGE MAR              ON UNIT   1042 AT TIME STEP     94, STRESS PERIOD      2
 UBDSV06 SAVING              CHD IN MODEL GWF              PACKAGE GWF             CONNECTED TO MODEL GWF              PACKAGE CHD_0            ON UNIT   1042 AT TIME STEP     94, STRESS PERIOD      2

    CALCULATED INTERCELL FLOW FOR PERIOD 2 STEP 94
(1,1,1): (1,1,2) 0.132968 (1,2,1) 0.125056
(1,1,2): (1,1,1) -0.132968 (1,1,3) 0.246677 (1,2,2) 0.186492
(1,1,3): (1,1,2) -0.246677 (1,1,4) 0.305932 (1,2,3) 0.312627
(1,1,4): (1,1,3) -0.305932 (1,1,5) 0.264892 (1,2,4) 0.492300
(1,1,5): (1,1,4) -0.264892 (1,1,6) 0.109782 (1,2,5) 0.669298
(1,1,6): (1,1,5) -0.109782 (1,1,7) -8.850992E-02 (1,2,6) 0.740875
(1,1,7): (1,1,6) 8.850992E-02 (1,1,8) -0.232238 (1,2,7) 0.674849
(1,1,8): (1,1,7) 0.232238 (1,1,9) -0.249279 (1,2,8) 0.507110
(1,1,9): (1,1,8) 0.249279 (1,1,10) -0.153865 (1,2,9) 0.345711
(1,1,10): (1,1,9) 0.153865 (1,2,10) 0.254750
(1,2,1): (1,1,1) -0.125056 (1,2,2) 0.194409 (1,3,1) 0.213282
(1,2,2): (1,1,2) -0.186492 (1,2,1) -0.194409 (1,2,3) 0.372885 (1,3,2) 0.335119
(1,2,3): (1,1,3) -0.312627 (1,2,2) -0.372885 (1,2,4) 0.485593 (1,3,3) 0.602092
(1,2,4): (1,1,4) -0.492300 (1,2,3) -0.485593 (1,2,5) 0.441507 (1,3,4) 1.02089
(1,2,5): (1,1,5) -0.669298 (1,2,4) -0.441507 (1,2,6) 0.180981 (1,3,5) 1.47904
(1,2,6): (1,1,6) -0.740875 (1,2,5) -0.180981 (1,2,7) -0.154170 (1,3,6) 1.65472
(1,2,7): (1,1,7) -0.674849 (1,2,6) 0.154170 (1,2,8) -0.399538 (1,3,7) 1.48804
(1,2,8): (1,1,8) -0.507110 (1,2,7) 0.399538 (1,2,9) -0.410528 (1,3,8) 1.04508
(1,2,9): (1,1,9) -0.345711 (1,2,8) 0.410528 (1,2,10) -0.244737 (1,3,9) 0.657525
(1,2,10): (1,1,10) -0.254750 (1,2,9) 0.244737 (1,3,10) 0.454516
(1,3,1): (1,2,1) -0.213282 (1,3,2) 0.316223 (1,4,1) 0.206881
(1,3,2): (1,2,2) -0.335119 (1,3,1) -0.316223 (1,3,3) 0.639956 (1,4,2) 0.366220
(1,3,3): (1,2,3) -0.602092 (1,3,2) -0.639956 (1,3,4) 0.903930 (1,4,3) 0.767926
(1,3,4): (1,2,4) -1.02089 (1,3,3) -0.903930 (1,3,5) 0.897212 (1,4,4) 1.53788
(1,3,5): (1,2,5) -1.47904 (1,3,4) -0.897212 (1,3,6) 0.354601 (1,4,5) 2.59376
(1,3,6): (1,2,6) -1.65472 (1,3,5) -0.354601 (1,3,7) -0.318842 (1,4,6) 2.92926
(1,3,7): (1,2,7) -1.48804 (1,3,6) 0.318842 (1,3,8) -0.839858 (1,4,7) 2.60163
(1,3,8): (1,2,8) -1.04508 (1,3,7) 0.839858 (1,3,9) -0.797186 (1,4,8) 1.55912
(1,3,9): (1,2,9) -0.657525 (1,3,8) 0.797186 (1,3,10) -0.447339 (1,4,9) 0.819188
(1,3,10): (1,2,10) -0.454516 (1,3,9) 0.447339 (1,4,10) 0.487666
(1,4,1): (1,3,1) -0.206881 (1,4,2) 0.475731 (1,5,1) 3.732343E-02
(1,4,2): (1,3,2) -0.366220 (1,4,1) -0.475731 (1,4,3) 1.04270 (1,5,2) 0.143898
(1,4,3): (1,3,3) -0.767926 (1,4,2) -1.04270 (1,4,4) 1.67485 (1,5,3) 0.543395
(1,4,4): (1,3,4) -1.53788 (1,4,3) -1.67485 (1,4,5) 1.94716 (1,5,4) 1.73843
(1,4,5): (1,3,5) -2.59376 (1,4,4) -1.94716 (1,4,6) 0.683768 (1,5,5) 4.37746
(1,4,6): (1,3,6) -2.92926 (1,4,5) -0.683768 (1,4,7) -0.640158 (1,5,6) 4.79819
(1,4,7): (1,3,7) -2.60163 (1,4,6) 0.640158 (1,4,8) -1.87580 (1,5,7) 4.37794
(1,4,8): (1,3,8) -1.55912 (1,4,7) 1.87580 (1,4,9) -1.53697 (1,5,8) 1.73889
(1,4,9): (1,3,9) -0.819188 (1,4,8) 1.53697 (1,4,10) -0.778735 (1,5,9) 0.547856
(1,4,10): (1,3,10) -0.487666 (1,4,9) 0.778735 (1,5,10) 0.172903
(1,5,1): (1,4,1) -3.732343E-02 (1,5,2) 0.582758 (1,6,1) -0.299916
(1,5,2): (1,4,2) -0.143898 (1,5,1) -0.582758 (1,5,3) 1.44558 (1,6,2) -0.451616
(1,5,3): (1,4,3) -0.543395 (1,5,2) -1.44558 (1,5,4) 2.88197 (1,6,3) -0.590005
(1,5,4): (1,4,4) -1.73843 (1,5,3) -2.88197 (1,5,5) 4.59073 (1,6,4) 0.369259
(1,5,5): (1,4,5) -4.37746 (1,5,4) -4.59073 (1,5,6) 1.09300 (1,6,5) 8.23798
(1,5,6): (1,4,6) -4.79819 (1,5,5) -1.09300 (1,5,7) -1.04874 (1,6,6) 7.32248
(1,5,7): (1,4,7) -4.37794 (1,5,6) 1.04874 (1,5,8) -4.51782 (1,6,7) 8.22657
(1,5,8): (1,4,8) -1.73889 (1,5,7) 4.51782 (1,5,9) -2.73852 (1,6,8) 0.336275
(1,5,9): (1,4,9) -0.547856 (1,5,8) 2.73852 (1,5,10) -1.15582 (1,6,9) -0.669870
(1,5,10): (1,4,10) -0.172903 (1,5,9) 1.15582 (1,6,10) -0.627072
(1,6,1): (1,5,1) 0.299916 (1,6,2) 0.430868 (1,7,1) -0.603285
(1,6,2): (1,5,2) 0.451616 (1,6,1) -0.430868 (1,6,3) 1.30613 (1,7,2) -1.20370
(1,6,3): (1,5,3) 0.590005 (1,6,2) -1.30613 (1,6,4) 3.86835 (1,7,3) -3.03347
(1,6,4): (1,5,4) -0.369259 (1,6,3) -3.86835 (1,6,5) 12.7160 (1,7,4) -8.35713
(1,6,5): (1,5,5) -8.23798 (1,6,4) -12.7160 (1,6,6) 0.225569 (1,7,5) -25.8075
(1,6,6): (1,5,6) -7.32248 (1,6,5) -0.225569 (1,6,7) -0.192247 (1,7,6) -38.7718
(1,6,7): (1,5,7) -8.22657 (1,6,6) 0.192247 (1,6,8) -12.6630 (1,7,7) -25.8286
(1,6,8): (1,5,8) -0.336275 (1,6,7) 12.6630 (1,6,9) -3.77173 (1,7,8) -8.41272
(1,6,9): (1,5,9) 0.669870 (1,6,8) 3.77173 (1,6,10) -1.11285 (1,7,9) -3.17949
(1,6,10): (1,5,10) 0.627072 (1,6,9) 1.11285 (1,7,10) -1.58265
(1,7,1): (1,6,1) 0.603285 (1,7,2) -0.165296 (1,8,1) -0.455675
(1,7,2): (1,6,2) 1.20370 (1,7,1) 0.165296 (1,7,3) -0.496220 (1,8,2) -0.927003
(1,7,3): (1,6,3) 3.03347 (1,7,2) 0.496220 (1,7,4) -1.26323 (1,8,3) -2.37359
(1,7,4): (1,6,4) 8.35713 (1,7,3) 1.26323 (1,7,5) -3.25509 (1,8,4) -6.50233
(1,7,5): (1,6,5) 25.8075 (1,7,4) 3.25509 (1,7,6) -10.2822 (1,8,5) -18.8835
(1,7,6): (1,6,6) 38.7718 (1,7,5) 10.2822 (1,7,7) 10.2989 (1,8,6) -59.3765
(1,7,7): (1,6,7) 25.8286 (1,7,6) -10.2989 (1,7,8) 3.26979 (1,8,7) -18.8987
(1,7,8): (1,6,8) 8.41272 (1,7,7) -3.26979 (1,7,9) 1.26657 (1,8,8) -6.54330
(1,7,9): (1,6,9) 3.17949 (1,7,8) -1.26657 (1,7,10) 0.455013 (1,8,9) -2.48244
(1,7,10): (1,6,10) 1.58265 (1,7,9) -0.455013 (1,8,10) -1.21443
(1,8,1): (1,7,1) 0.455675 (1,8,2) -0.635253 (1,9,1) 3.595903E-02
(1,8,2): (1,7,2) 0.927003 (1,8,1) 0.635253 (1,8,3) -1.93651 (1,9,2) 0.156908
(1,8,3): (1,7,3) 2.37359 (1,8,2) 1.93651 (1,8,4) -5.34466 (1,9,3) 0.697843
(1,8,4): (1,7,4) 6.50233 (1,8,3) 5.34466 (1,8,5) -15.1967 (1,9,4) 2.90787
(1,8,5): (1,7,5) 18.8835 (1,8,4) 15.1967 (1,8,6) -46.1701 (1,9,5) 11.6535
(1,8,6): (1,7,6) 59.3765 (1,8,5) 46.1701 (1,8,7) 46.1744 (1,9,6) 47.7495
(1,8,7): (1,7,7) 18.8987 (1,8,6) -46.1744 (1,8,8) 15.1831 (1,9,7) 11.6534
(1,8,8): (1,7,8) 6.54330 (1,8,7) -15.1831 (1,8,9) 5.27648 (1,9,8) 2.90769
(1,8,9): (1,7,9) 2.48244 (1,8,8) -5.27648 (1,8,10) 1.71328 (1,9,9) 0.702179
(1,8,10): (1,7,10) 1.21443 (1,8,9) -1.71328 (1,9,10) 0.187061
(1,9,1): (1,8,1) -3.595903E-02 (1,9,2) -0.513718 (1,10,1) 0.344139
(1,9,2): (1,8,2) -0.156908 (1,9,1) 0.513718 (1,9,3) -1.38867 (1,10,2) 0.720956
(1,9,3): (1,8,3) -0.697843 (1,9,2) 1.38867 (1,9,4) -3.07719 (1,10,3) 1.88658
(1,9,4): (1,8,4) -2.90787 (1,9,3) 3.07719 (1,9,5) -6.10787 (1,10,4) 5.21286
(1,9,5): (1,8,5) -11.6535 (1,9,4) 6.10787 (1,9,6) -10.6425 (1,10,5) 15.2722
(1,9,6): (1,8,6) -47.7495 (1,9,5) 10.6425 (1,9,7) 10.6450 (1,10,6) 25.5291
(1,9,7): (1,8,7) -11.6534 (1,9,6) -10.6450 (1,9,8) 6.09548 (1,10,7) 15.2815
(1,9,8): (1,8,8) -2.90769 (1,9,7) -6.09548 (1,9,9) 3.01521 (1,10,8) 5.24123
(1,9,9): (1,8,9) -0.702179 (1,9,8) -3.01521 (1,9,10) 1.19278 (1,10,9) 1.96643
(1,9,10): (1,8,10) -0.187061 (1,9,9) -1.19278 (1,10,10) 0.940133
(1,10,1): (1,9,1) -0.344139 (1,10,2) -0.137681 (1,11,1) 0.297065
(1,10,2): (1,9,2) -0.720956 (1,10,1) 0.137681 (1,10,3) -0.228826 (1,11,2) 0.513218
(1,10,3): (1,9,3) -1.88658 (1,10,2) 0.228826 (1,10,4) 0.180377 (1,11,3) 0.961610
(1,10,4): (1,9,4) -5.21286 (1,10,3) -0.180377 (1,10,5) 3.24621 (1,11,4) 1.33388
(1,10,5): (1,9,5) -15.2722 (1,10,4) -3.24621 (1,10,6) -1.74819 (1,11,5) -0.769627
(1,10,6): (1,9,6) -25.5291 (1,10,5) 1.74819 (1,10,7) 1.75886 (1,11,6) 0.889762
(1,10,7): (1,9,7) -15.2815 (1,10,6) -1.75886 (1,10,8) -3.23885 (1,11,7) -0.760405
(1,10,8): (1,9,8) -5.24123 (1,10,7) 3.23885 (1,10,9) -0.189099 (1,11,8) 1.36205
(1,10,9): (1,9,9) -1.96643 (1,10,8) 0.189099 (1,10,10) 0.174390 (1,11,9) 1.03577
(1,10,10): (1,9,10) -0.940133 (1,10,9) -0.174390 (1,11,10) 0.693272
(1,11,1): (1,10,1) -0.297065 (1,11,2) 7.772852E-02 (1,12,1) 0.117418
(1,11,2): (1,10,2) -0.513218 (1,11,1) -7.772852E-02 (1,11,3) 0.216799 (1,12,2) 0.178377
(1,11,3): (1,10,3) -0.961610 (1,11,2) -0.216799 (1,11,4) 0.549830 (1,12,3) 0.254161
(1,11,4): (1,10,4) -1.33388 (1,11,3) -0.549830 (1,11,5) 1.11041 (1,12,4) 0.164969
(1,11,5): (1,10,5) 0.769627 (1,11,4) -1.11041 (1,11,6) -8.100904E-02 (1,12,5) -0.410231
(1,11,6): (1,10,6) -0.889762 (1,11,5) 8.100904E-02 (1,11,7) 0.100675 (1,12,6) -0.202597
(1,11,7): (1,10,7) 0.760405 (1,11,6) -0.100675 (1,11,8) -1.08436 (1,12,7) -0.406529
(1,11,8): (1,10,8) -1.36205 (1,11,7) 1.08436 (1,11,9) -0.512719 (1,12,8) 0.176854
(1,11,9): (1,10,9) -1.03577 (1,11,8) 0.512719 (1,11,10) -0.165479 (1,12,9) 0.285321
(1,11,10): (1,10,10) -0.693272 (1,11,9) 0.165479 (1,12,10) 0.248989
(1,12,1): (1,11,1) -0.117418 (1,12,2) 0.138664 (1,13,1) -2.423255E-02
(1,12,2): (1,11,2) -0.178377 (1,12,1) -0.138664 (1,12,3) 0.292612 (1,13,2) -3.771403E-02
(1,12,3): (1,11,3) -0.254161 (1,12,2) -0.292612 (1,12,4) 0.460378 (1,13,3) -8.883718E-02
(1,12,4): (1,11,4) -0.164969 (1,12,3) -0.460378 (1,12,5) 0.531611 (1,13,4) -0.227015
(1,12,5): (1,11,5) 0.410231 (1,12,4) -0.531611 (1,12,6) 0.126124 (1,13,5) -0.456046
(1,12,6): (1,11,6) 0.202597 (1,12,5) -0.126124 (1,12,7) -0.102762 (1,13,6) -0.472936
(1,12,7): (1,11,7) 0.406529 (1,12,6) 0.102762 (1,12,8) -0.497486 (1,13,7) -0.457715
(1,12,8): (1,11,8) -0.176854 (1,12,7) 0.497486 (1,12,9) -0.404009 (1,13,8) -0.230447
(1,12,9): (1,11,9) -0.285321 (1,12,8) 0.404009 (1,12,10) -0.201782 (1,13,9) -9.438172E-02
(1,12,10): (1,11,10) -0.248989 (1,12,9) 0.201782 (1,13,10) -4.719689E-02
(1,13,1): (1,12,1) 2.423255E-02 (1,13,2) 0.125169 (1,14,1) -7.623001E-02
(1,13,2): (1,12,2) 3.771403E-02 (1,13,1) -0.125169 (1,13,3) 0.241386 (1,14,2) -0.107272
(1,13,3): (1,12,3) 8.883718E-02 (1,13,2) -0.241386 (1,13,4) 0.321887 (1,14,3) -0.175184
(1,13,4): (1,12,4) 0.227015 (1,13,3) -0.321887 (1,13,5) 0.302414 (1,14,4) -0.282733
(1,13,5): (1,12,5) 0.456046 (1,13,4) -0.302414 (1,13,6) 0.109289 (1,14,5) -0.399969
(1,13,6): (1,12,6) 0.472936 (1,13,5) -0.109289 (1,13,7) -8.759380E-02 (1,14,6) -0.434996
(1,13,7): (1,12,7) 0.457715 (1,13,6) 8.759380E-02 (1,13,8) -0.270131 (1,14,7) -0.403826
(1,13,8): (1,12,8) 0.230447 (1,13,7) 0.270131 (1,13,9) -0.267715 (1,14,8) -0.292377
(1,13,9): (1,12,9) 9.438172E-02 (1,13,8) 0.267715 (1,13,10) -0.154547 (1,14,9) -0.195005
(1,13,10): (1,12,10) 4.719689E-02 (1,13,9) 0.154547 (1,14,10) -0.145143
(1,14,1): (1,13,1) 7.623001E-02 (1,14,2) 9.412134E-02 (1,15,1) -5.594498E-02
(1,14,2): (1,13,2) 0.107272 (1,14,1) -9.412134E-02 (1,14,3) 0.173430 (1,15,2) -7.657733E-02
(1,14,3): (1,13,3) 0.175184 (1,14,2) -0.173430 (1,14,4) 0.214297 (1,15,3) -0.117650
(1,14,4): (1,13,4) 0.282733 (1,14,3) -0.214297 (1,14,5) 0.185288 (1,15,4) -0.174117
(1,14,5): (1,13,5) 0.399969 (1,14,4) -0.185288 (1,14,6) 7.437122E-02 (1,15,5) -0.227605
(1,14,6): (1,13,6) 0.434996 (1,14,5) -7.437122E-02 (1,14,7) -5.652773E-02 (1,15,6) -0.247480
(1,14,7): (1,13,7) 0.403826 (1,14,6) 5.652773E-02 (1,14,8) -0.158826 (1,15,7) -0.230424
(1,14,8): (1,13,8) 0.292377 (1,14,7) 0.158826 (1,14,9) -0.170367 (1,15,8) -0.181266
(1,14,9): (1,13,9) 0.195005 (1,14,8) 0.170367 (1,14,10) -0.104705 (1,15,9) -0.132455
(1,14,10): (1,13,10) 0.145143 (1,14,9) 0.104705 (1,15,10) -0.104532
(1,15,1): (1,14,1) 5.594498E-02 (1,15,2) 7.348540E-02
(1,15,2): (1,14,2) 7.657733E-02 (1,15,1) -7.348540E-02 (1,15,3) 0.132335
(1,15,3): (1,14,3) 0.117650 (1,15,2) -0.132335 (1,15,4) 0.157808
(1,15,4): (1,14,4) 0.174117 (1,15,3) -0.157808 (1,15,5) 0.131822
(1,15,5): (1,14,5) 0.227605 (1,15,4) -0.131822 (1,15,6) 5.452927E-02
(1,15,6): (1,14,6) 0.247480 (1,15,5) -5.452927E-02 (1,15,7) -3.950301E-02
(1,15,7): (1,14,7) 0.230424 (1,15,6) 3.950301E-02 (1,15,8) -0.109702
(1,15,8): (1,14,8) 0.181266 (1,15,7) 0.109702 (1,15,9) -0.121561
(1,15,9): (1,14,9) 0.132455 (1,15,8) 0.121561 (1,15,10) -7.678902E-02
(1,15,10): (1,14,10) 0.104532 (1,15,9) 7.678902E-02

 WEL PACKAGE (WEL-1) FLOW RATES   PERIOD      2   STEP       94
 ----------------------------------------------------------------------------------------
   NUMBER   CELLID                    RATE       NAME                                    
 ----------------------------------------------------------------------------------------
     1      (1,8,6)              -199.59249      WEL                                     
 ----------------------------------------------------------------------------------------




 API PACKAGE (MAR) FLOW RATES   PERIOD      2   STEP       94
 -----------------------------------------------
   NUMBER   CELLID                    RATE      
 -----------------------------------------------
     1      (1,6,5)               46.666667     
     2      (1,6,6)               46.666667     
     3      (1,6,7)               46.666667     
     4      (1,10,5)              19.864165     
     5      (1,10,6)              19.864165     
     6      (1,10,7)              19.864165     
 -----------------------------------------------



1
  HEAD IN LAYER   1 AT END OF TIME STEP  94 IN STRESS PERIOD    2
  ---------------------------------------------------------------------------

            1           2           3           4           5           6           7           8           9          10
 ........................................................................................................................
   1   4.0669E-02  5.3894E-02  7.8370E-02  0.1086      0.1348      0.1456      0.1369      0.1140      8.9311E-02  7.4061E-02
   2   5.3108E-02  7.2409E-02  0.1093      0.1571      0.2004      0.2181      0.2030      0.1639      0.1235      9.9285E-02
   3   7.4279E-02  0.1056      0.1685      0.2566      0.3434      0.3775      0.3468      0.2657      0.1880      0.1441    
   4   9.4773E-02  0.1417      0.2435      0.4044      0.5883      0.6525      0.5924      0.4153      0.2678      0.1919    
   5   9.8469E-02  0.1559      0.2962      0.5689      0.9868       1.085      0.9908      0.5797      0.3209      0.2089    
   6   6.8770E-02  0.1114      0.2389      0.6038       1.691       1.711       1.694      0.6114      0.2560      0.1475    
   7   8.8533E-03 -7.6616E-03 -5.7322E-02 -0.1844     -0.5160      -1.600     -0.5144     -0.1814     -5.4054E-02 -8.5140E-03
   8  -3.6674E-02 -0.1004     -0.2960     -0.8468      -2.507      -8.669      -2.507     -0.8478     -0.3036     -0.1301    
   9  -3.3066E-02 -8.4608E-02 -0.2247     -0.5395      -1.185      -2.392      -1.185     -0.5404     -0.2318     -0.1111    
  10   1.3432E-03 -1.2423E-02 -3.5334E-02 -1.7265E-02  0.2980      0.1282      0.2990     -1.5501E-02 -3.4440E-02 -1.6971E-02
  11   3.0958E-02  3.8701E-02  6.0251E-02  0.1146      0.2232      0.2153      0.2251      0.1191      6.8433E-02  5.1997E-02
  12   4.2650E-02  5.6439E-02  8.5452E-02  0.1309      0.1831      0.1955      0.1854      0.1365      9.6692E-02  7.6707E-02
  13   4.0237E-02  5.2688E-02  7.6643E-02  0.1085      0.1383      0.1491      0.1405      0.1138      8.7344E-02  7.2023E-02
  14   3.2645E-02  4.2017E-02  5.9258E-02  8.0517E-02  9.8864E-02  0.1062      0.1006      8.4905E-02  6.8012E-02  5.7612E-02
  15   2.7068E-02  3.4392E-02  4.7563E-02  6.3244E-02  7.6327E-02  8.1735E-02  7.7817E-02  6.6931E-02  5.4856E-02  4.7219E-02

 HEAD WILL BE SAVED ON UNIT 1043 AT END OF TIME STEP   94, STRESS PERIOD    2


  VOLUME BUDGET FOR ENTIRE MODEL AT END OF TIME STEP   94, STRESS PERIOD   2
  ---------------------------------------------------------------------------------------------------

     CUMULATIVE VOLUME      L**3       RATES FOR THIS TIME STEP      L**3/T          PACKAGE NAME    
     ------------------                 ------------------------                     ----------------

           IN:                                      IN:
           ---                                      ---
              STO-SS =          27.8269                STO-SS =       1.2557E-02     STORAGE                          
              STO-SY =       65157.8221                STO-SY =          25.9088     STORAGE                          
                 WEL =           0.0000                   WEL =           0.0000     WEL-1                            
                 API =      207968.3843                   API =         199.5925     MAR                              
                 CHD =       2.8247E-08                   CHD =           0.0000     CHD_0                            

            TOTAL IN =      273154.0333              TOTAL IN =         225.5139

          OUT:                                     OUT:
          ----                                     ----
              STO-SS =          33.7616                STO-SS =       1.3313E-02     STORAGE                          
              STO-SY =       65151.8874                STO-SY =          25.9080     STORAGE                          
                 WEL =      207968.3843                   WEL =         199.5925     WEL-1                            
                 API =           0.0000                   API =           0.0000     MAR                              
                 CHD =       3.0388E-08                   CHD =           0.0000     CHD_0                            

           TOTAL OUT =      273154.0333             TOTAL OUT =         225.5139

            IN - OUT =       4.4989E-06              IN - OUT =       8.8573E-09

 PERCENT DISCREPANCY =           0.00     PERCENT DISCREPANCY =           0.00




         TIME SUMMARY AT END OF TIME STEP   94 IN STRESS PERIOD    2
                    SECONDS     MINUTES      HOURS       DAYS        YEARS
                    -----------------------------------------------------------
   TIME STEP LENGTH 8.64000E+05  14400.      240.00      10.000     2.73785E-02
 STRESS PERIOD TIME 8.12160E+07 1.35360E+06  22560.      940.00      2.5736    
         TOTAL TIME 8.13024E+07 1.35504E+06  22584.      941.00      2.5763    


end timestep


start timestep kper="2" kstp="95" mode="normal"

 UBDSV1 SAVING           STO-SS ON UNIT   1042 AT TIME STEP     95, STRESS PERIOD      2
 UBDSV1 SAVING           STO-SY ON UNIT   1042 AT TIME STEP     95, STRESS PERIOD      2
 UBDSV1 SAVING     FLOW-JA-FACE ON UNIT   1042 AT TIME STEP     95, STRESS PERIOD      2
 UBDSV06 SAVING       DATA-SPDIS IN MODEL GWF              PACKAGE NPF             CONNECTED TO MODEL GWF              PACKAGE NPF              ON UNIT   1042 AT TIME STEP     95, STRESS PERIOD      2
 UBDSV06 SAVING              WEL IN MODEL GWF              PACKAGE GWF             CONNECTED TO MODEL GWF              PACKAGE WEL-1            ON UNIT   1042 AT TIME STEP     95, STRESS PERIOD      2
 UBDSV06 SAVING              API IN MODEL GWF              PACKAGE GWF             CONNECTED TO MODEL GWF              PACKAGE MAR              ON UNIT   1042 AT TIME STEP     95, STRESS PERIOD      2
 UBDSV06 SAVING              CHD IN MODEL GWF              PACKAGE GWF             CONNECTED TO MODEL GWF              PACKAGE CHD_0            ON UNIT   1042 AT TIME STEP     95, STRESS PERIOD      2

    CALCULATED INTERCELL FLOW FOR PERIOD 2 STEP 95
(1,1,1): (1,1,2) 0.135083 (1,2,1) 0.126261
(1,1,2): (1,1,1) -0.135083 (1,1,3) 0.250288 (1,2,2) 0.187816
(1,1,3): (1,1,2) -0.250288 (1,1,4) 0.309958 (1,2,3) 0.314138
(1,1,4): (1,1,3) -0.309958 (1,1,5) 0.268107 (1,2,4) 0.494002
(1,1,5): (1,1,4) -0.268107 (1,1,6) 0.111241 (1,2,5) 0.671144
(1,1,6): (1,1,5) -0.111241 (1,1,7) -8.908759E-02 (1,2,6) 0.742802
(1,1,7): (1,1,6) 8.908759E-02 (1,1,8) -0.234324 (1,2,7) 0.676786
(1,1,8): (1,1,7) 0.234324 (1,1,9) -0.251755 (1,2,8) 0.509006
(1,1,9): (1,1,8) 0.251755 (1,1,10) -0.155500 (1,2,9) 0.347542
(1,1,10): (1,1,9) 0.155500 (1,2,10) 0.256531
(1,2,1): (1,1,1) -0.126261 (1,2,2) 0.196642 (1,3,1) 0.214602
(1,2,2): (1,1,2) -0.187816 (1,2,1) -0.196642 (1,2,3) 0.376688 (1,3,2) 0.336480
(1,2,3): (1,1,3) -0.314138 (1,2,2) -0.376688 (1,2,4) 0.489815 (1,3,3) 0.603500
(1,2,4): (1,1,4) -0.494002 (1,2,3) -0.489815 (1,2,5) 0.444869 (1,3,4) 1.02231
(1,2,5): (1,1,5) -0.671144 (1,2,4) -0.444869 (1,2,6) 0.182521 (1,3,5) 1.48046
(1,2,6): (1,1,6) -0.742802 (1,2,5) -0.182521 (1,2,7) -0.154738 (1,3,6) 1.65618
(1,2,7): (1,1,7) -0.676786 (1,2,6) 0.154738 (1,2,8) -0.401665 (1,3,7) 1.48957
(1,2,8): (1,1,8) -0.509006 (1,2,7) 0.401665 (1,2,9) -0.413070 (1,3,8) 1.04673
(1,2,9): (1,1,9) -0.347542 (1,2,8) 0.413070 (1,2,10) -0.246423 (1,3,9) 0.659269
(1,2,10): (1,1,10) -0.256531 (1,2,9) 0.246423 (1,3,10) 0.456310
(1,3,1): (1,2,1) -0.214602 (1,3,2) 0.318499 (1,4,1) 0.206646
(1,3,2): (1,2,2) -0.336480 (1,3,1) -0.318499 (1,3,3) 0.643811 (1,4,2) 0.365679
(1,3,3): (1,2,3) -0.603500 (1,3,2) -0.643811 (1,3,4) 0.908180 (1,4,3) 0.766849
(1,3,4): (1,2,4) -1.02231 (1,3,3) -0.908180 (1,3,5) 0.900582 (1,4,4) 1.53619
(1,3,5): (1,2,5) -1.48046 (1,3,4) -0.900582 (1,3,6) 0.356182 (1,4,5) 2.59156
(1,3,6): (1,2,6) -1.65618 (1,3,5) -0.356182 (1,3,7) -0.319341 (1,4,6) 2.92692
(1,3,7): (1,2,7) -1.48957 (1,3,6) 0.319341 (1,3,8) -0.841876 (1,4,7) 2.59944
(1,3,8): (1,2,8) -1.04673 (1,3,7) 0.841876 (1,3,9) -0.799635 (1,4,8) 1.55741
(1,3,9): (1,2,9) -0.659269 (1,3,8) 0.799635 (1,3,10) -0.448974 (1,4,9) 0.818001
(1,3,10): (1,2,10) -0.456310 (1,3,9) 0.448974 (1,4,10) 0.486815
(1,4,1): (1,3,1) -0.206646 (1,4,2) 0.477704 (1,5,1) 3.422367E-02
(1,4,2): (1,3,2) -0.365679 (1,4,1) -0.477704 (1,4,3) 1.04604 (1,5,2) 0.139965
(1,4,3): (1,3,3) -0.766849 (1,4,2) -1.04604 (1,4,4) 1.67852 (1,5,3) 0.538094
(1,4,4): (1,3,4) -1.53619 (1,4,3) -1.67852 (1,4,5) 1.95007 (1,5,4) 1.73171
(1,4,5): (1,3,5) -2.59156 (1,4,4) -1.95007 (1,4,6) 0.685230 (1,5,5) 4.36960
(1,4,6): (1,3,6) -2.92692 (1,4,5) -0.685230 (1,4,7) -0.640522 (1,5,6) 4.79009
(1,4,7): (1,3,7) -2.59944 (1,4,6) 0.640522 (1,4,8) -1.87738 (1,5,7) 4.36990
(1,4,8): (1,3,8) -1.55741 (1,4,7) 1.87738 (1,4,9) -1.53892 (1,5,8) 1.73173
(1,4,9): (1,3,9) -0.818001 (1,4,8) 1.53892 (1,4,10) -0.780042 (1,5,9) 0.541655
(1,4,10): (1,3,10) -0.486815 (1,4,9) 0.780042 (1,5,10) 0.167382
(1,5,1): (1,4,1) -3.422367E-02 (1,5,2) 0.583899 (1,6,1) -0.305898
(1,5,2): (1,4,2) -0.139965 (1,5,1) -0.583899 (1,5,3) 1.44756 (1,6,2) -0.458941
(1,5,3): (1,4,3) -0.538094 (1,5,2) -1.44756 (1,5,4) 2.88430 (1,6,3) -0.599459
(1,5,4): (1,4,4) -1.73171 (1,5,3) -2.88430 (1,5,5) 4.59271 (1,6,4) 0.357887
(1,5,5): (1,4,5) -4.36960 (1,5,4) -4.59271 (1,5,6) 1.09425 (1,6,5) 8.22511
(1,5,6): (1,4,6) -4.79009 (1,5,5) -1.09425 (1,5,7) -1.04906 (1,6,6) 7.30983
(1,5,7): (1,4,7) -4.36990 (1,5,6) 1.04906 (1,5,8) -4.51872 (1,6,7) 8.21333
(1,5,8): (1,4,8) -1.73173 (1,5,7) 4.51872 (1,5,9) -2.73958 (1,6,8) 0.324039
(1,5,9): (1,4,9) -0.541655 (1,5,8) 2.73958 (1,5,10) -1.15646 (1,6,9) -0.680998
(1,5,10): (1,4,10) -0.167382 (1,5,9) 1.15646 (1,6,10) -0.637237
(1,6,1): (1,5,1) 0.305898 (1,6,2) 0.430673 (1,7,1) -0.610590
(1,6,2): (1,5,2) 0.458941 (1,6,1) -0.430673 (1,6,3) 1.30597 (1,7,2) -1.21265
(1,6,3): (1,5,3) 0.599459 (1,6,2) -1.30597 (1,6,4) 3.86870 (1,7,3) -3.04504
(1,6,4): (1,5,4) -0.357887 (1,6,3) -3.86870 (1,6,5) 12.7172 (1,7,4) -8.37105
(1,6,5): (1,5,5) -8.22511 (1,6,4) -12.7172 (1,6,6) 0.226947 (1,7,5) -25.8223
(1,6,6): (1,5,6) -7.30983 (1,6,5) -0.226947 (1,6,7) -0.193043 (1,7,6) -38.7846
(1,6,7): (1,5,7) -8.21333 (1,6,6) 0.193043 (1,6,8) -12.6636 (1,7,7) -25.8439
(1,6,8): (1,5,8) -0.324039 (1,6,7) 12.6636 (1,6,9) -3.77162 (1,7,8) -8.42767
(1,6,9): (1,5,9) 0.680998 (1,6,8) 3.77162 (1,6,10) -1.11254 (1,7,9) -3.19306
(1,6,10): (1,5,10) 0.637237 (1,6,9) 1.11254 (1,7,10) -1.59503
(1,7,1): (1,6,1) 0.610590 (1,7,2) -0.167078 (1,8,1) -0.461951
(1,7,2): (1,6,2) 1.21265 (1,7,1) 0.167078 (1,7,3) -0.498773 (1,8,2) -0.935060
(1,7,3): (1,6,3) 3.04504 (1,7,2) 0.498773 (1,7,4) -1.26459 (1,8,3) -2.38472
(1,7,4): (1,6,4) 8.37105 (1,7,3) 1.26459 (1,7,5) -3.25321 (1,8,4) -6.51660
(1,7,5): (1,6,5) 25.8223 (1,7,4) 3.25321 (1,7,6) -10.2780 (1,8,5) -18.8980
(1,7,6): (1,6,6) 38.7846 (1,7,5) 10.2780 (1,7,7) 10.2949 (1,8,6) -59.3798
(1,7,7): (1,6,7) 25.8439 (1,7,6) -10.2949 (1,7,8) 3.26788 (1,8,7) -18.9135
(1,7,8): (1,6,8) 8.42767 (1,7,7) -3.26788 (1,7,9) 1.26739 (1,8,8) -6.55841
(1,7,9): (1,6,9) 3.19306 (1,7,8) -1.26739 (1,7,10) 0.456315 (1,8,9) -2.49527
(1,7,10): (1,6,10) 1.59503 (1,7,9) -0.456315 (1,8,10) -1.22552
(1,8,1): (1,7,1) 0.461951 (1,8,2) -0.638790 (1,9,1) 3.283921E-02
(1,8,2): (1,7,2) 0.935060 (1,8,1) 0.638790 (1,8,3) -1.94205 (1,9,2) 0.152240
(1,8,3): (1,7,3) 2.38472 (1,8,2) 1.94205 (1,8,4) -5.34869 (1,9,3) 0.689756
(1,8,4): (1,7,4) 6.51660 (1,8,3) 5.34869 (1,8,5) -15.1928 (1,9,4) 2.89353
(1,8,5): (1,7,5) 18.8980 (1,8,4) 15.1928 (1,8,6) -46.1454 (1,9,5) 11.6268
(1,8,6): (1,7,6) 59.3798 (1,8,5) 46.1454 (1,8,7) 46.1495 (1,9,6) 47.6905
(1,8,7): (1,7,7) 18.9135 (1,8,6) -46.1495 (1,8,8) 15.1786 (1,9,7) 11.6265
(1,8,8): (1,7,8) 6.55841 (1,8,7) -15.1786 (1,8,9) 5.27904 (1,9,8) 2.89296
(1,8,9): (1,7,9) 2.49527 (1,8,8) -5.27904 (1,8,10) 1.71619 (1,9,9) 0.693259
(1,8,10): (1,7,10) 1.22552 (1,8,9) -1.71619 (1,9,10) 0.180688
(1,9,1): (1,8,1) -3.283921E-02 (1,9,2) -0.518800 (1,10,1) 0.345074
(1,9,2): (1,8,2) -0.152240 (1,9,1) 0.518800 (1,9,3) -1.39760 (1,10,2) 0.721368
(1,9,3): (1,8,3) -0.689756 (1,9,2) 1.39760 (1,9,4) -3.08717 (1,10,3) 1.88522
(1,9,4): (1,8,4) -2.89353 (1,9,3) 3.08717 (1,9,5) -6.11433 (1,10,4) 5.20637
(1,9,5): (1,8,5) -11.6268 (1,9,4) 6.11433 (1,9,6) -10.6378 (1,10,5) 15.2506
(1,9,6): (1,8,6) -47.6905 (1,9,5) 10.6378 (1,9,7) 10.6400 (1,10,6) 25.4966
(1,9,7): (1,8,7) -11.6265 (1,9,6) -10.6400 (1,9,8) 6.10112 (1,10,7) 15.2600
(1,9,8): (1,8,8) -2.89296 (1,9,7) -6.10112 (1,9,9) 3.02328 (1,10,8) 5.23492
(1,9,9): (1,8,9) -0.693259 (1,9,8) -3.02328 (1,9,10) 1.19819 (1,10,9) 1.96533
(1,9,10): (1,8,10) -0.180688 (1,9,9) -1.19819 (1,10,10) 0.940739
(1,10,1): (1,9,1) -0.345074 (1,10,2) -0.143268 (1,11,1) 0.301136
(1,10,2): (1,9,2) -0.721368 (1,10,1) 0.143268 (1,10,3) -0.239392 (1,11,2) 0.518229
(1,10,3): (1,9,3) -1.88522 (1,10,2) 0.239392 (1,10,4) 0.165811 (1,11,3) 0.968343
(1,10,4): (1,9,4) -5.20637 (1,10,3) -0.165811 (1,10,5) 3.22636 (1,11,4) 1.34352
(1,10,5): (1,9,5) -15.2506 (1,10,4) -3.22636 (1,10,6) -1.75204 (1,11,5) -0.752201
(1,10,6): (1,9,6) -25.4966 (1,10,5) 1.75204 (1,10,7) 1.76250 (1,11,6) 0.907087
(1,10,7): (1,9,7) -15.2600 (1,10,6) -1.76250 (1,10,8) -3.21968 (1,11,7) -0.742760
(1,10,8): (1,9,8) -5.23492 (1,10,7) 3.21968 (1,10,9) -0.176288 (1,11,8) 1.37224
(1,10,9): (1,9,9) -1.96533 (1,10,8) 0.176288 (1,10,10) 0.181437 (1,11,9) 1.04360
(1,10,10): (1,9,10) -0.940739 (1,10,9) -0.181437 (1,11,10) 0.700173
(1,11,1): (1,10,1) -0.301136 (1,11,2) 7.307249E-02 (1,12,1) 0.122369
(1,11,2): (1,10,2) -0.518229 (1,11,1) -7.307249E-02 (1,11,3) 0.207921 (1,12,2) 0.185022
(1,11,3): (1,10,3) -0.968343 (1,11,2) -0.207921 (1,11,4) 0.538073 (1,12,3) 0.264013
(1,11,4): (1,10,4) -1.34352 (1,11,3) -0.538073 (1,11,5) 1.09878 (1,12,4) 0.179200
(1,11,5): (1,10,5) 0.752201 (1,11,4) -1.09878 (1,11,6) -8.490999E-02 (1,12,5) -0.391060
(1,11,6): (1,10,6) -0.907087 (1,11,5) 8.490999E-02 (1,11,7) 0.104596 (1,12,6) -0.181993
(1,11,7): (1,10,7) 0.742760 (1,11,6) -0.104596 (1,11,8) -1.07307 (1,12,7) -0.387122
(1,11,8): (1,10,8) -1.37224 (1,11,7) 1.07307 (1,11,9) -0.502180 (1,12,8) 0.191712
(1,11,9): (1,10,9) -1.04360 (1,11,8) 0.502180 (1,11,10) -0.159331 (1,12,9) 0.296517
(1,11,10): (1,10,10) -0.700173 (1,11,9) 0.159331 (1,12,10) 0.258171
(1,12,1): (1,11,1) -0.122369 (1,12,2) 0.135695 (1,13,1) -2.036176E-02
(1,12,2): (1,11,2) -0.185022 (1,12,1) -0.135695 (1,12,3) 0.286929 (1,13,2) -3.222904E-02
(1,12,3): (1,11,3) -0.264013 (1,12,2) -0.286929 (1,12,4) 0.453030 (1,13,3) -8.034468E-02
(1,12,4): (1,11,4) -0.179200 (1,12,3) -0.453030 (1,12,5) 0.524959 (1,13,4) -0.214695
(1,12,5): (1,11,5) 0.391060 (1,12,4) -0.524959 (1,12,6) 0.123692 (1,13,5) -0.440196
(1,12,6): (1,11,6) 0.181993 (1,12,5) -0.123692 (1,12,7) -0.100076 (1,13,6) -0.455759
(1,12,7): (1,11,7) 0.387122 (1,12,6) 0.100076 (1,12,8) -0.490785 (1,13,7) -0.441702
(1,12,8): (1,11,8) -0.191712 (1,12,7) 0.490785 (1,12,9) -0.397163 (1,13,8) -0.217665
(1,12,9): (1,11,9) -0.296517 (1,12,8) 0.397163 (1,12,10) -0.197641 (1,13,9) -8.482357E-02
(1,12,10): (1,11,10) -0.258171 (1,12,9) 0.197641 (1,13,10) -3.957003E-02
(1,13,1): (1,12,1) 2.036176E-02 (1,13,2) 0.123816 (1,14,1) -7.408868E-02
(1,13,2): (1,12,2) 3.222904E-02 (1,13,1) -0.123816 (1,13,3) 0.238716 (1,14,2) -0.104029
(1,13,3): (1,12,3) 8.034468E-02 (1,13,2) -0.238716 (1,13,4) 0.318369 (1,14,3) -0.169898
(1,13,4): (1,12,4) 0.214695 (1,13,3) -0.318369 (1,13,5) 0.299275 (1,14,4) -0.274911
(1,13,5): (1,12,5) 0.440196 (1,13,4) -0.299275 (1,13,6) 0.108177 (1,14,5) -0.389938
(1,13,6): (1,12,6) 0.455759 (1,13,5) -0.108177 (1,13,7) -8.606609E-02 (1,14,6) -0.424098
(1,13,7): (1,12,7) 0.441702 (1,13,6) 8.606609E-02 (1,13,8) -0.266642 (1,14,7) -0.393724
(1,13,8): (1,12,8) 0.217665 (1,13,7) 0.266642 (1,13,9) -0.264090 (1,14,8) -0.284322
(1,13,9): (1,12,9) 8.482357E-02 (1,13,8) 0.264090 (1,13,10) -0.152337 (1,14,9) -0.189118
(1,13,10): (1,12,10) 3.957003E-02 (1,13,9) 0.152337 (1,14,10) -0.140594
(1,14,1): (1,13,1) 7.408868E-02 (1,14,2) 9.386995E-02 (1,15,1) -5.514186E-02
(1,14,2): (1,13,2) 0.104029 (1,14,1) -9.386995E-02 (1,14,3) 0.172802 (1,15,2) -7.525329E-02
(1,14,3): (1,13,3) 0.169898 (1,14,2) -0.172802 (1,14,4) 0.213311 (1,15,3) -0.115360
(1,14,4): (1,13,4) 0.274911 (1,14,3) -0.213311 (1,14,5) 0.184349 (1,15,4) -0.170636
(1,14,5): (1,13,5) 0.389938 (1,14,4) -0.184349 (1,14,6) 7.412072E-02 (1,15,5) -0.223105
(1,14,6): (1,13,6) 0.424098 (1,14,5) -7.412072E-02 (1,14,7) -5.579050E-02 (1,15,6) -0.242580
(1,14,7): (1,13,7) 0.393724 (1,14,6) 5.579050E-02 (1,14,8) -0.157375 (1,15,7) -0.225908
(1,14,8): (1,13,8) 0.284322 (1,14,7) 0.157375 (1,14,9) -0.168905 (1,15,8) -0.177711
(1,14,9): (1,13,9) 0.189118 (1,14,8) 0.168905 (1,14,10) -0.103830 (1,15,9) -0.129935
(1,14,10): (1,13,10) 0.140594 (1,14,9) 0.103830 (1,15,10) -0.102657
(1,15,1): (1,14,1) 5.514186E-02 (1,15,2) 7.375481E-02
(1,15,2): (1,14,2) 7.525329E-02 (1,15,1) -7.375481E-02 (1,15,3) 0.132672
(1,15,3): (1,14,3) 0.115360 (1,15,2) -0.132672 (1,15,4) 0.158012
(1,15,4): (1,14,4) 0.170636 (1,15,3) -0.158012 (1,15,5) 0.131900
(1,15,5): (1,14,5) 0.223105 (1,15,4) -0.131900 (1,15,6) 5.467793E-02
(1,15,6): (1,14,6) 0.242580 (1,15,5) -5.467793E-02 (1,15,7) -3.914853E-02
(1,15,7): (1,14,7) 0.225908 (1,15,6) 3.914853E-02 (1,15,8) -0.109210
(1,15,8): (1,14,8) 0.177711 (1,15,7) 0.109210 (1,15,9) -0.121133
(1,15,9): (1,14,9) 0.129935 (1,15,8) 0.121133 (1,15,10) -7.655910E-02
(1,15,10): (1,14,10) 0.102657 (1,15,9) 7.655910E-02

 WEL PACKAGE (WEL-1) FLOW RATES   PERIOD      2   STEP       95
 ----------------------------------------------------------------------------------------
   NUMBER   CELLID                    RATE       NAME                                    
 ----------------------------------------------------------------------------------------
     1      (1,8,6)              -199.48469      WEL                                     
 ----------------------------------------------------------------------------------------




 API PACKAGE (MAR) FLOW RATES   PERIOD      2   STEP       95
 -----------------------------------------------
   NUMBER   CELLID                    RATE      
 -----------------------------------------------
     1      (1,6,5)               46.666667     
     2      (1,6,6)               46.666667     
     3      (1,6,7)               46.666667     
     4      (1,10,5)              19.828229     
     5      (1,10,6)              19.828229     
     6      (1,10,7)              19.828229     
 -----------------------------------------------



1
  HEAD IN LAYER   1 AT END OF TIME STEP  95 IN STRESS PERIOD    2
  ---------------------------------------------------------------------------

            1           2           3           4           5           6           7           8           9          10
 ........................................................................................................................
   1   4.1975E-02  5.5409E-02  8.0238E-02  0.1109      0.1373      0.1483      0.1395      0.1164      9.1529E-02  7.6120E-02
   2   5.4532E-02  7.4052E-02  0.1113      0.1595      0.2031      0.2210      0.2058      0.1665      0.1259      0.1015    
   3   7.5831E-02  0.1073      0.1706      0.2592      0.3462      0.3805      0.3498      0.2684      0.1905      0.1465    
   4   9.6299E-02  0.1434      0.2455      0.4068      0.5909      0.6552      0.5951      0.4179      0.2702      0.1942    
   5   9.9687E-02  0.1572      0.2977      0.5706      0.9886       1.087      0.9926      0.5816      0.3227      0.2106    
   6   6.9399E-02  0.1120      0.2395      0.6044       1.692       1.711       1.695      0.6121      0.2567      0.1482    
   7   8.7612E-03 -7.9320E-03 -5.7849E-02 -0.1850     -0.5165      -1.600     -0.5149     -0.1821     -5.4620E-02 -8.9478E-03
   8  -3.7394E-02 -0.1015     -0.2977     -0.8490      -2.509      -8.670      -2.509     -0.8501     -0.3055     -0.1316    
   9  -3.4098E-02 -8.6156E-02 -0.2271     -0.5430      -1.190      -2.397      -1.189     -0.5441     -0.2345     -0.1133    
  10   4.0765E-04 -1.3919E-02 -3.7891E-02 -2.1275E-02  0.2922      0.1220      0.2932     -1.9595E-02 -3.7259E-02 -1.9080E-02
  11   3.0430E-02  3.7710E-02  5.8381E-02  0.1116      0.2191      0.2108      0.2210      0.1161      6.6413E-02  5.0585E-02
  12   4.2615E-02  5.6109E-02  8.4561E-02  0.1293      0.1808      0.1930      0.1832      0.1350      9.5783E-02  7.6206E-02
  13   4.0587E-02  5.2904E-02  7.6594E-02  0.1081      0.1376      0.1483      0.1398      0.1135      8.7381E-02  7.2279E-02
  14   3.3208E-02  4.2556E-02  5.9733E-02  8.0893E-02  9.9147E-02  0.1065      0.1010      8.5381E-02  6.8633E-02  5.8321E-02
  15   2.7712E-02  3.5062E-02  4.8266E-02  6.3966E-02  7.7056E-02  8.2479E-02  7.8596E-02  6.7760E-02  5.5728E-02  4.8115E-02

 HEAD WILL BE SAVED ON UNIT 1043 AT END OF TIME STEP   95, STRESS PERIOD    2


  VOLUME BUDGET FOR ENTIRE MODEL AT END OF TIME STEP   95, STRESS PERIOD   2
  ---------------------------------------------------------------------------------------------------

     CUMULATIVE VOLUME      L**3       RATES FOR THIS TIME STEP      L**3/T          PACKAGE NAME    
     ------------------                 ------------------------                     ----------------

           IN:                                      IN:
           ---                                      ---
              STO-SS =          27.9514                STO-SS =       1.2456E-02     STORAGE                          
              STO-SY =       65414.8058                STO-SY =          25.6984     STORAGE                          
                 WEL =           0.0000                   WEL =           0.0000     WEL-1                            
                 API =      209963.2312                   API =         199.4847     MAR                              
                 CHD =       2.8247E-08                   CHD =           0.0000     CHD_0                            

            TOTAL IN =      275405.9884              TOTAL IN =         225.1955

          OUT:                                     OUT:
          ----                                     ----
              STO-SS =          33.8936                STO-SS =       1.3207E-02     STORAGE                          
              STO-SY =       65408.8636                STO-SY =          25.6976     STORAGE                          
                 WEL =      209963.2311                   WEL =         199.4847     WEL-1                            
                 API =           0.0000                   API =           0.0000     MAR                              
                 CHD =       3.0388E-08                   CHD =           0.0000     CHD_0                            

           TOTAL OUT =      275405.9884             TOTAL OUT =         225.1955

            IN - OUT =       4.5857E-06              IN - OUT =       8.6865E-09

 PERCENT DISCREPANCY =           0.00     PERCENT DISCREPANCY =           0.00




         TIME SUMMARY AT END OF TIME STEP   95 IN STRESS PERIOD    2
                    SECONDS     MINUTES      HOURS       DAYS        YEARS
                    -----------------------------------------------------------
   TIME STEP LENGTH 8.64000E+05  14400.      240.00      10.000     2.73785E-02
 STRESS PERIOD TIME 8.20800E+07 1.36800E+06  22800.      950.00      2.6010    
         TOTAL TIME 8.21664E+07 1.36944E+06  22824.      951.00      2.6037    


end timestep


start timestep kper="2" kstp="96" mode="normal"

 UBDSV1 SAVING           STO-SS ON UNIT   1042 AT TIME STEP     96, STRESS PERIOD      2
 UBDSV1 SAVING           STO-SY ON UNIT   1042 AT TIME STEP     96, STRESS PERIOD      2
 UBDSV1 SAVING     FLOW-JA-FACE ON UNIT   1042 AT TIME STEP     96, STRESS PERIOD      2
 UBDSV06 SAVING       DATA-SPDIS IN MODEL GWF              PACKAGE NPF             CONNECTED TO MODEL GWF              PACKAGE NPF              ON UNIT   1042 AT TIME STEP     96, STRESS PERIOD      2
 UBDSV06 SAVING              WEL IN MODEL GWF              PACKAGE GWF             CONNECTED TO MODEL GWF              PACKAGE WEL-1            ON UNIT   1042 AT TIME STEP     96, STRESS PERIOD      2
 UBDSV06 SAVING              API IN MODEL GWF              PACKAGE GWF             CONNECTED TO MODEL GWF              PACKAGE MAR              ON UNIT   1042 AT TIME STEP     96, STRESS PERIOD      2
 UBDSV06 SAVING              CHD IN MODEL GWF              PACKAGE GWF             CONNECTED TO MODEL GWF              PACKAGE CHD_0            ON UNIT   1042 AT TIME STEP     96, STRESS PERIOD      2

    CALCULATED INTERCELL FLOW FOR PERIOD 2 STEP 96
(1,1,1): (1,1,2) 0.137172 (1,2,1) 0.127419
(1,1,2): (1,1,1) -0.137172 (1,1,3) 0.253856 (1,2,2) 0.189080
(1,1,3): (1,1,2) -0.253856 (1,1,4) 0.313935 (1,2,3) 0.315571
(1,1,4): (1,1,3) -0.313935 (1,1,5) 0.271283 (1,2,4) 0.495605
(1,1,5): (1,1,4) -0.271283 (1,1,6) 0.112691 (1,2,5) 0.672876
(1,1,6): (1,1,5) -0.112691 (1,1,7) -8.963858E-02 (1,2,6) 0.744608
(1,1,7): (1,1,6) 8.963858E-02 (1,1,8) -0.236357 (1,2,7) 0.678605
(1,1,8): (1,1,7) 0.236357 (1,1,9) -0.254174 (1,2,8) 0.510796
(1,1,9): (1,1,8) 0.254174 (1,1,10) -0.157100 (1,2,9) 0.349280
(1,1,10): (1,1,9) 0.157100 (1,2,10) 0.258228
(1,2,1): (1,1,1) -0.127419 (1,2,2) 0.198839 (1,3,1) 0.215842
(1,2,2): (1,1,2) -0.189080 (1,2,1) -0.198839 (1,2,3) 0.380427 (1,3,2) 0.337747
(1,2,3): (1,1,3) -0.315571 (1,2,2) -0.380427 (1,2,4) 0.493966 (1,3,3) 0.604790
(1,2,4): (1,1,4) -0.495605 (1,2,3) -0.493966 (1,2,5) 0.448176 (1,3,4) 1.02360
(1,2,5): (1,1,5) -0.672876 (1,2,4) -0.448176 (1,2,6) 0.184045 (1,3,5) 1.48173
(1,2,6): (1,1,6) -0.744608 (1,2,5) -0.184045 (1,2,7) -0.155276 (1,3,6) 1.65748
(1,2,7): (1,1,7) -0.678605 (1,2,6) 0.155276 (1,2,8) -0.403728 (1,3,7) 1.49093
(1,2,8): (1,1,8) -0.510796 (1,2,7) 0.403728 (1,2,9) -0.415542 (1,3,8) 1.04822
(1,2,9): (1,1,9) -0.349280 (1,2,8) 0.415542 (1,2,10) -0.248063 (1,3,9) 0.660870
(1,2,10): (1,1,10) -0.258228 (1,2,9) 0.248063 (1,3,10) 0.457971
(1,3,1): (1,2,1) -0.215842 (1,3,2) 0.320724 (1,4,1) 0.206332
(1,3,2): (1,2,2) -0.337747 (1,3,1) -0.320724 (1,3,3) 0.647580 (1,4,2) 0.365053
(1,3,3): (1,2,3) -0.604790 (1,3,2) -0.647580 (1,3,4) 0.912336 (1,4,3) 0.765681
(1,3,4): (1,2,4) -1.02360 (1,3,3) -0.912336 (1,3,5) 0.903880 (1,4,4) 1.53440
(1,3,5): (1,2,5) -1.48173 (1,3,4) -0.903880 (1,3,6) 0.357739 (1,4,5) 2.58926
(1,3,6): (1,2,6) -1.65748 (1,3,5) -0.357739 (1,3,7) -0.319808 (1,4,6) 2.92448
(1,3,7): (1,2,7) -1.49093 (1,3,6) 0.319808 (1,3,8) -0.843821 (1,4,7) 2.59715
(1,3,8): (1,2,8) -1.04822 (1,3,7) 0.843821 (1,3,9) -0.802000 (1,4,8) 1.55560
(1,3,9): (1,2,9) -0.660870 (1,3,8) 0.802000 (1,3,10) -0.450555 (1,4,9) 0.816701
(1,3,10): (1,2,10) -0.457971 (1,3,9) 0.450555 (1,4,10) 0.485847
(1,4,1): (1,3,1) -0.206332 (1,4,2) 0.479621 (1,5,1) 3.108184E-02
(1,4,2): (1,3,2) -0.365053 (1,4,1) -0.479621 (1,4,3) 1.04928 (1,5,2) 0.136005
(1,4,3): (1,3,3) -0.765681 (1,4,2) -1.04928 (1,4,4) 1.68209 (1,5,3) 0.532795
(1,4,4): (1,3,4) -1.53440 (1,4,3) -1.68209 (1,4,5) 1.95291 (1,5,4) 1.72502
(1,4,5): (1,3,5) -2.58926 (1,4,4) -1.95291 (1,4,6) 0.686665 (1,5,5) 4.36180
(1,4,6): (1,3,6) -2.92448 (1,4,5) -0.686665 (1,4,7) -0.640856 (1,5,6) 4.78205
(1,4,7): (1,3,7) -2.59715 (1,4,6) 0.640856 (1,4,8) -1.87888 (1,5,7) 4.36192
(1,4,8): (1,3,8) -1.55560 (1,4,7) 1.87888 (1,4,9) -1.54079 (1,5,8) 1.72458
(1,4,9): (1,3,9) -0.816701 (1,4,8) 1.54079 (1,4,10) -0.781300 (1,5,9) 0.535444
(1,4,10): (1,3,10) -0.485847 (1,4,9) 0.781300 (1,5,10) 0.161830
(1,5,1): (1,4,1) -3.108184E-02 (1,5,2) 0.585000 (1,6,1) -0.311869
(1,5,2): (1,4,2) -0.136005 (1,5,1) -0.585000 (1,5,3) 1.44948 (1,6,2) -0.466220
(1,5,3): (1,4,3) -0.532795 (1,5,2) -1.44948 (1,5,4) 2.88656 (1,6,3) -0.608804
(1,5,4): (1,4,4) -1.72502 (1,5,3) -2.88656 (1,5,5) 4.59464 (1,6,4) 0.346686
(1,5,5): (1,4,5) -4.36180 (1,5,4) -4.59464 (1,5,6) 1.09549 (1,6,5) 8.21245
(1,5,6): (1,4,6) -4.78205 (1,5,5) -1.09549 (1,5,7) -1.04937 (1,6,6) 7.29740
(1,5,7): (1,4,7) -4.36192 (1,5,6) 1.04937 (1,5,8) -4.51957 (1,6,7) 8.20030
(1,5,8): (1,4,8) -1.72458 (1,5,7) 4.51957 (1,5,9) -2.74060 (1,6,8) 0.311971
(1,5,9): (1,4,9) -0.535444 (1,5,8) 2.74060 (1,5,10) -1.15708 (1,6,9) -0.692013
(1,5,10): (1,4,10) -0.161830 (1,5,9) 1.15708 (1,6,10) -0.647330
(1,6,1): (1,5,1) 0.311869 (1,6,2) 0.430474 (1,7,1) -0.617857
(1,6,2): (1,5,2) 0.466220 (1,6,1) -0.430474 (1,6,3) 1.30582 (1,7,2) -1.22151
(1,6,3): (1,5,3) 0.608804 (1,6,2) -1.30582 (1,6,4) 3.86904 (1,7,3) -3.05645
(1,6,4): (1,5,4) -0.346686 (1,6,3) -3.86904 (1,6,5) 12.7185 (1,7,4) -8.38473
(1,6,5): (1,5,5) -8.21245 (1,6,4) -12.7185 (1,6,6) 0.228300 (1,7,5) -25.8369
(1,6,6): (1,5,6) -7.29740 (1,6,5) -0.228300 (1,6,7) -0.193821 (1,7,6) -38.7971
(1,6,7): (1,5,7) -8.20030 (1,6,6) 0.193821 (1,6,8) -12.6643 (1,7,7) -25.8589
(1,6,8): (1,5,8) -0.311971 (1,6,7) 12.6643 (1,6,9) -3.77152 (1,7,8) -8.44239
(1,6,9): (1,5,9) 0.692013 (1,6,8) 3.77152 (1,6,10) -1.11223 (1,7,9) -3.20646
(1,6,10): (1,5,10) 0.647330 (1,6,9) 1.11223 (1,7,10) -1.60727
(1,7,1): (1,6,1) 0.617857 (1,7,2) -0.168818 (1,8,1) -0.468208
(1,7,2): (1,6,2) 1.22151 (1,7,1) 0.168818 (1,7,3) -0.501253 (1,8,2) -0.943054
(1,7,3): (1,6,3) 3.05645 (1,7,2) 0.501253 (1,7,4) -1.26589 (1,8,3) -2.39572
(1,7,4): (1,6,4) 8.38473 (1,7,3) 1.26589 (1,7,5) -3.25136 (1,8,4) -6.53063
(1,7,5): (1,6,5) 25.8369 (1,7,4) 3.25136 (1,7,6) -10.2738 (1,8,5) -18.9123
(1,7,6): (1,6,6) 38.7971 (1,7,5) 10.2738 (1,7,7) 10.2909 (1,8,6) -59.3831
(1,7,7): (1,6,7) 25.8589 (1,7,6) -10.2909 (1,7,8) 3.26597 (1,8,7) -18.9282
(1,7,8): (1,6,8) 8.44239 (1,7,7) -3.26597 (1,7,9) 1.26815 (1,8,8) -6.57330
(1,7,9): (1,6,9) 3.20646 (1,7,8) -1.26815 (1,7,10) 0.457557 (1,8,9) -2.50795
(1,7,10): (1,6,10) 1.60727 (1,7,9) -0.457557 (1,8,10) -1.23652
(1,8,1): (1,7,1) 0.468208 (1,8,2) -0.642240 (1,9,1) 2.968956E-02
(1,8,2): (1,7,2) 0.943054 (1,8,1) 0.642240 (1,8,3) -1.94743 (1,9,2) 0.147569
(1,8,3): (1,7,3) 2.39572 (1,8,2) 1.94743 (1,8,4) -5.35257 (1,9,3) 0.681731
(1,8,4): (1,7,4) 6.53063 (1,8,3) 5.35257 (1,8,5) -15.1890 (1,9,4) 2.87937
(1,8,5): (1,7,5) 18.9123 (1,8,4) 15.1890 (1,8,6) -46.1212 (1,9,5) 11.6005
(1,8,6): (1,7,6) 59.3831 (1,8,5) 46.1212 (1,8,7) 46.1250 (1,9,6) 47.6325
(1,8,7): (1,7,7) 18.9282 (1,8,6) -46.1250 (1,8,8) 15.1741 (1,9,7) 11.6001
(1,8,8): (1,7,8) 6.57330 (1,8,7) -15.1741 (1,8,9) 5.28146 (1,9,8) 2.87842
(1,8,9): (1,7,9) 2.50795 (1,8,8) -5.28146 (1,8,10) 1.71898 (1,9,9) 0.684391
(1,8,10): (1,7,10) 1.23652 (1,8,9) -1.71898 (1,9,10) 0.174307
(1,9,1): (1,8,1) -2.968956E-02 (1,9,2) -0.523770 (1,10,1) 0.345939
(1,9,2): (1,8,2) -0.147569 (1,9,1) 0.523770 (1,9,3) -1.40630 (1,10,2) 0.721701
(1,9,3): (1,8,3) -0.681731 (1,9,2) 1.40630 (1,9,4) -3.09688 (1,10,3) 1.88379
(1,9,4): (1,8,4) -2.87937 (1,9,3) 3.09688 (1,9,5) -6.12058 (1,10,4) 5.19990
(1,9,5): (1,8,5) -11.6005 (1,9,4) 6.12058 (1,9,6) -10.6331 (1,10,5) 15.2293
(1,9,6): (1,8,6) -47.6325 (1,9,5) 10.6331 (1,9,7) 10.6351 (1,10,6) 25.4647
(1,9,7): (1,8,7) -11.6001 (1,9,6) -10.6351 (1,9,8) 6.10656 (1,10,7) 15.2388
(1,9,8): (1,8,8) -2.87842 (1,9,7) -6.10656 (1,9,9) 3.03109 (1,10,8) 5.22861
(1,9,9): (1,8,9) -0.684391 (1,9,8) -3.03109 (1,9,10) 1.20343 (1,10,9) 1.96414
(1,9,10): (1,8,10) -0.174307 (1,9,9) -1.20343 (1,10,10) 0.941233
(1,10,1): (1,9,1) -0.345939 (1,10,2) -0.148752 (1,11,1) 0.305139
(1,10,2): (1,9,2) -0.721701 (1,10,1) 0.148752 (1,10,3) -0.249736 (1,11,2) 0.523130
(1,10,3): (1,9,3) -1.88379 (1,10,2) 0.249736 (1,10,4) 0.151584 (1,11,3) 0.974886
(1,10,4): (1,9,4) -5.19990 (1,10,3) -0.151584 (1,10,5) 3.20696 (1,11,4) 1.35286
(1,10,5): (1,9,5) -15.2293 (1,10,4) -3.20696 (1,10,6) -1.75578 (1,11,5) -0.735276
(1,10,6): (1,9,6) -25.4647 (1,10,5) 1.75578 (1,10,7) 1.76603 (1,11,6) 0.923901
(1,10,7): (1,9,7) -15.2388 (1,10,6) -1.76603 (1,10,8) -3.20098 (1,11,7) -0.725618
(1,10,8): (1,9,8) -5.22861 (1,10,7) 3.20098 (1,10,9) -0.163826 (1,11,8) 1.38212
(1,10,9): (1,9,9) -1.96414 (1,10,8) 0.163826 (1,10,10) 0.188290 (1,11,9) 1.05122
(1,10,10): (1,9,10) -0.941233 (1,10,9) -0.188290 (1,11,10) 0.706917
(1,11,1): (1,10,1) -0.305139 (1,11,2) 6.847761E-02 (1,12,1) 0.127304
(1,11,2): (1,10,2) -0.523130 (1,11,1) -6.847761E-02 (1,11,3) 0.199187 (1,12,2) 0.191601
(1,11,3): (1,10,3) -0.974886 (1,11,2) -0.199187 (1,11,4) 0.526545 (1,12,3) 0.273700
(1,11,4): (1,10,4) -1.35286 (1,11,3) -0.526545 (1,11,5) 1.08740 (1,12,4) 0.193133
(1,11,5): (1,10,5) 0.735276 (1,11,4) -1.08740 (1,11,6) -8.872756E-02 (1,12,5) -0.372332
(1,11,6): (1,10,6) -0.923901 (1,11,5) 8.872756E-02 (1,11,7) 0.108415 (1,12,6) -0.161873
(1,11,7): (1,10,7) 0.725618 (1,11,6) -0.108415 (1,11,8) -1.06206 (1,12,7) -0.368155
(1,11,8): (1,10,8) -1.38212 (1,11,7) 1.06206 (1,11,9) -0.491893 (1,12,8) 0.206274
(1,11,9): (1,10,9) -1.05122 (1,11,8) 0.491893 (1,11,10) -0.153325 (1,12,9) 0.307544
(1,11,10): (1,10,10) -0.706917 (1,11,9) 0.153325 (1,12,10) 0.267257
(1,12,1): (1,11,1) -0.127304 (1,12,2) 0.132737 (1,13,1) -1.644582E-02
(1,12,2): (1,11,2) -0.191601 (1,12,1) -0.132737 (1,12,3) 0.281292 (1,13,2) -2.673183E-02
(1,12,3): (1,11,3) -0.273700 (1,12,2) -0.281292 (1,12,4) 0.445777 (1,13,3) -7.190798E-02
(1,12,4): (1,11,4) -0.193133 (1,12,3) -0.445777 (1,12,5) 0.518416 (1,13,4) -0.202527
(1,12,5): (1,11,5) 0.372332 (1,12,4) -0.518416 (1,12,6) 0.121301 (1,13,5) -0.424588
(1,12,6): (1,11,6) 0.161873 (1,12,5) -0.121301 (1,12,7) -9.744472E-02 (1,13,6) -0.438858
(1,12,7): (1,11,7) 0.368155 (1,12,6) 9.744472E-02 (1,12,8) -0.484215 (1,13,7) -0.425927
(1,12,8): (1,11,8) -0.206274 (1,12,7) 0.484215 (1,12,9) -0.390439 (1,13,8) -0.205023
(1,12,9): (1,11,9) -0.307544 (1,12,8) 0.390439 (1,12,10) -0.193568 (1,13,9) -7.530802E-02
(1,12,10): (1,11,10) -0.267257 (1,12,9) 0.193568 (1,13,10) -3.192832E-02
(1,13,1): (1,12,1) 1.644582E-02 (1,13,2) 0.122441 (1,14,1) -7.187517E-02
(1,13,2): (1,12,2) 2.673183E-02 (1,13,1) -0.122441 (1,13,3) 0.236023 (1,14,2) -0.100725
(1,13,3): (1,12,3) 7.190798E-02 (1,13,2) -0.236023 (1,13,4) 0.314849 (1,14,3) -0.164581
(1,13,4): (1,12,4) 0.202527 (1,13,3) -0.314849 (1,13,5) 0.296154 (1,14,4) -0.267103
(1,13,5): (1,12,5) 0.424588 (1,13,4) -0.296154 (1,13,6) 0.107074 (1,14,5) -0.379965
(1,13,6): (1,12,6) 0.438858 (1,13,5) -0.107074 (1,13,7) -8.455467E-02 (1,14,6) -0.413275
(1,13,7): (1,12,7) 0.425927 (1,13,6) 8.455467E-02 (1,13,8) -0.263187 (1,14,7) -0.383674
(1,13,8): (1,12,8) 0.205023 (1,13,7) 0.263187 (1,13,9) -0.260491 (1,14,8) -0.276267
(1,13,9): (1,12,9) 7.530802E-02 (1,13,8) 0.260491 (1,13,10) -0.150138 (1,14,9) -0.183179
(1,13,10): (1,12,10) 3.192832E-02 (1,13,9) 0.150138 (1,14,10) -0.135962
(1,14,1): (1,13,1) 7.187517E-02 (1,14,2) 9.358436E-02 (1,15,1) -5.428727E-02
(1,14,2): (1,13,2) 0.100725 (1,14,1) -9.358436E-02 (1,14,3) 0.172122 (1,15,2) -7.387909E-02
(1,14,3): (1,13,3) 0.164581 (1,14,2) -0.172122 (1,14,4) 0.212279 (1,15,3) -0.113027
(1,14,4): (1,13,4) 0.267103 (1,14,3) -0.212279 (1,14,5) 0.183384 (1,15,4) -0.167125
(1,14,5): (1,13,5) 0.379965 (1,14,4) -0.183384 (1,14,6) 7.386198E-02 (1,15,5) -0.218588
(1,14,6): (1,13,6) 0.413275 (1,14,5) -7.386198E-02 (1,14,7) -5.504699E-02 (1,15,6) -0.237667
(1,14,7): (1,13,7) 0.383674 (1,14,6) 5.504699E-02 (1,14,8) -0.155906 (1,15,7) -0.221370
(1,14,8): (1,13,8) 0.276267 (1,14,7) 0.155906 (1,14,9) -0.167417 (1,15,8) -0.174115
(1,14,9): (1,13,9) 0.183179 (1,14,8) 0.167417 (1,14,10) -0.102936 (1,15,9) -0.127355
(1,14,10): (1,13,10) 0.135962 (1,14,9) 0.102936 (1,15,10) -0.100712
(1,15,1): (1,14,1) 5.428727E-02 (1,15,2) 7.398872E-02
(1,15,2): (1,14,2) 7.387909E-02 (1,15,1) -7.398872E-02 (1,15,3) 0.132952
(1,15,3): (1,14,3) 0.113027 (1,15,2) -0.132952 (1,15,4) 0.158157
(1,15,4): (1,14,4) 0.167125 (1,15,3) -0.158157 (1,15,5) 0.131938
(1,15,5): (1,14,5) 0.218588 (1,15,4) -0.131938 (1,15,6) 5.481340E-02
(1,15,6): (1,14,6) 0.237667 (1,15,5) -5.481340E-02 (1,15,7) -3.877879E-02
(1,15,7): (1,14,7) 0.221370 (1,15,6) 3.877879E-02 (1,15,8) -0.108681
(1,15,8): (1,14,8) 0.174115 (1,15,7) 0.108681 (1,15,9) -0.120660
(1,15,9): (1,14,9) 0.127355 (1,15,8) 0.120660 (1,15,10) -7.629949E-02
(1,15,10): (1,14,10) 0.100712 (1,15,9) 7.629949E-02

 WEL PACKAGE (WEL-1) FLOW RATES   PERIOD      2   STEP       96
 ----------------------------------------------------------------------------------------
   NUMBER   CELLID                    RATE       NAME                                    
 ----------------------------------------------------------------------------------------
     1      (1,8,6)              -199.37898      WEL                                     
 ----------------------------------------------------------------------------------------




 API PACKAGE (MAR) FLOW RATES   PERIOD      2   STEP       96
 -----------------------------------------------
   NUMBER   CELLID                    RATE      
 -----------------------------------------------
     1      (1,6,5)               46.666667     
     2      (1,6,6)               46.666667     
     3      (1,6,7)               46.666667     
     4      (1,10,5)              19.792995     
     5      (1,10,6)              19.792995     
     6      (1,10,7)              19.792995     
 -----------------------------------------------



1
  HEAD IN LAYER   1 AT END OF TIME STEP  96 IN STRESS PERIOD    2
  ---------------------------------------------------------------------------

            1           2           3           4           5           6           7           8           9          10
 ........................................................................................................................
   1   4.3297E-02  5.6937E-02  8.2115E-02  0.1132      0.1399      0.1510      0.1422      0.1189      9.3759E-02  7.8195E-02
   2   5.5968E-02  7.5703E-02  0.1133      0.1619      0.2058      0.2238      0.2087      0.1691      0.1282      0.1038    
   3   7.7386E-02  0.1091      0.1728      0.2617      0.3490      0.3835      0.3527      0.2712      0.1931      0.1489    
   4   9.7820E-02  0.1451      0.2475      0.4091      0.5934      0.6579      0.5977      0.4204      0.2726      0.1965    
   5   0.1009      0.1585      0.2992      0.5723      0.9903       1.089      0.9945      0.5834      0.3244      0.2124    
   6   7.0021E-02  0.1126      0.2401      0.6049       1.693       1.712       1.696      0.6128      0.2574      0.1490    
   7   8.6654E-03 -8.2017E-03 -5.8368E-02 -0.1857     -0.5170      -1.600     -0.5154     -0.1827     -5.5180E-02 -9.3817E-03
   8  -3.8115E-02 -0.1026     -0.2993     -0.8511      -2.511      -8.670      -2.511     -0.8523     -0.3074     -0.1331    
   9  -3.5135E-02 -8.7697E-02 -0.2296     -0.5465      -1.194      -2.401      -1.194     -0.5477     -0.2373     -0.1155    
  10  -5.3963E-04 -1.5416E-02 -4.0428E-02 -2.5231E-02  0.2865      0.1158      0.2875     -2.3640E-02 -4.0061E-02 -2.1192E-02
  11   2.9883E-02  3.6706E-02  5.6513E-02  0.1086      0.2151      0.2064      0.2170      0.1130      6.4388E-02  4.9154E-02
  12   4.2560E-02  5.5760E-02  8.3656E-02  0.1277      0.1786      0.1905      0.1809      0.1334      9.4854E-02  7.5679E-02
  13   4.0922E-02  5.3102E-02  7.6525E-02  0.1077      0.1369      0.1474      0.1391      0.1132      8.7394E-02  7.2510E-02
  14   3.3764E-02  4.3082E-02  6.0192E-02  8.1248E-02  9.9406E-02  0.1067      0.1013      8.5834E-02  6.9234E-02  5.9012E-02
  15   2.8354E-02  3.5726E-02  4.8957E-02  6.4671E-02  7.7763E-02  8.3199E-02  7.9353E-02  6.8570E-02  5.6586E-02  4.8999E-02

 HEAD WILL BE SAVED ON UNIT 1043 AT END OF TIME STEP   96, STRESS PERIOD    2


  VOLUME BUDGET FOR ENTIRE MODEL AT END OF TIME STEP   96, STRESS PERIOD   2
  ---------------------------------------------------------------------------------------------------

     CUMULATIVE VOLUME      L**3       RATES FOR THIS TIME STEP      L**3/T          PACKAGE NAME    
     ------------------                 ------------------------                     ----------------

           IN:                                      IN:
           ---                                      ---
              STO-SS =          28.0750                STO-SS =       1.2356E-02     STORAGE                          
              STO-SY =       65669.7049                STO-SY =          25.4899     STORAGE                          
                 WEL =           0.0000                   WEL =           0.0000     WEL-1                            
                 API =      211957.0210                   API =         199.3790     MAR                              
                 CHD =       2.8247E-08                   CHD =           0.0000     CHD_0                            

            TOTAL IN =      277654.8010              TOTAL IN =         224.8813

          OUT:                                     OUT:
          ----                                     ----
              STO-SS =          34.0246                STO-SS =       1.3101E-02     STORAGE                          
              STO-SY =       65663.7553                STO-SY =          25.4892     STORAGE                          
                 WEL =      211957.0210                   WEL =         199.3790     WEL-1                            
                 API =           0.0000                   API =           0.0000     MAR                              
                 CHD =       3.0388E-08                   CHD =           0.0000     CHD_0                            

           TOTAL OUT =      277654.8009             TOTAL OUT =         224.8813

            IN - OUT =       4.6708E-06              IN - OUT =       8.5139E-09

 PERCENT DISCREPANCY =           0.00     PERCENT DISCREPANCY =           0.00




         TIME SUMMARY AT END OF TIME STEP   96 IN STRESS PERIOD    2
                    SECONDS     MINUTES      HOURS       DAYS        YEARS
                    -----------------------------------------------------------
   TIME STEP LENGTH 8.64000E+05  14400.      240.00      10.000     2.73785E-02
 STRESS PERIOD TIME 8.29440E+07 1.38240E+06  23040.      960.00      2.6283    
         TOTAL TIME 8.30304E+07 1.38384E+06  23064.      961.00      2.6311    


end timestep


start timestep kper="2" kstp="97" mode="normal"

 UBDSV1 SAVING           STO-SS ON UNIT   1042 AT TIME STEP     97, STRESS PERIOD      2
 UBDSV1 SAVING           STO-SY ON UNIT   1042 AT TIME STEP     97, STRESS PERIOD      2
 UBDSV1 SAVING     FLOW-JA-FACE ON UNIT   1042 AT TIME STEP     97, STRESS PERIOD      2
 UBDSV06 SAVING       DATA-SPDIS IN MODEL GWF              PACKAGE NPF             CONNECTED TO MODEL GWF              PACKAGE NPF              ON UNIT   1042 AT TIME STEP     97, STRESS PERIOD      2
 UBDSV06 SAVING              WEL IN MODEL GWF              PACKAGE GWF             CONNECTED TO MODEL GWF              PACKAGE WEL-1            ON UNIT   1042 AT TIME STEP     97, STRESS PERIOD      2
 UBDSV06 SAVING              API IN MODEL GWF              PACKAGE GWF             CONNECTED TO MODEL GWF              PACKAGE MAR              ON UNIT   1042 AT TIME STEP     97, STRESS PERIOD      2
 UBDSV06 SAVING              CHD IN MODEL GWF              PACKAGE GWF             CONNECTED TO MODEL GWF              PACKAGE CHD_0            ON UNIT   1042 AT TIME STEP     97, STRESS PERIOD      2

    CALCULATED INTERCELL FLOW FOR PERIOD 2 STEP 97
(1,1,1): (1,1,2) 0.139237 (1,2,1) 0.128528
(1,1,2): (1,1,1) -0.139237 (1,1,3) 0.257380 (1,2,2) 0.190285
(1,1,3): (1,1,2) -0.257380 (1,1,4) 0.317860 (1,2,3) 0.316926
(1,1,4): (1,1,3) -0.317860 (1,1,5) 0.274420 (1,2,4) 0.497111
(1,1,5): (1,1,4) -0.274420 (1,1,6) 0.114131 (1,2,5) 0.674496
(1,1,6): (1,1,5) -0.114131 (1,1,7) -9.016320E-02 (1,2,6) 0.746297
(1,1,7): (1,1,6) 9.016320E-02 (1,1,8) -0.238338 (1,2,7) 0.680309
(1,1,8): (1,1,7) 0.238338 (1,1,9) -0.256536 (1,2,8) 0.512482
(1,1,9): (1,1,8) 0.256536 (1,1,10) -0.158663 (1,2,9) 0.350927
(1,1,10): (1,1,9) 0.158663 (1,2,10) 0.259841
(1,2,1): (1,1,1) -0.128528 (1,2,2) 0.201000 (1,3,1) 0.217002
(1,2,2): (1,1,2) -0.190285 (1,2,1) -0.201000 (1,2,3) 0.384104 (1,3,2) 0.338920
(1,2,3): (1,1,3) -0.316926 (1,2,2) -0.384104 (1,2,4) 0.498046 (1,3,3) 0.605964
(1,2,4): (1,1,4) -0.497111 (1,2,3) -0.498046 (1,2,5) 0.451430 (1,3,4) 1.02474
(1,2,5): (1,1,5) -0.674496 (1,2,4) -0.451430 (1,2,6) 0.185554 (1,3,5) 1.48283
(1,2,6): (1,1,6) -0.746297 (1,2,5) -0.185554 (1,2,7) -0.155784 (1,3,6) 1.65861
(1,2,7): (1,1,7) -0.680309 (1,2,6) 0.155784 (1,2,8) -0.405729 (1,3,7) 1.49214
(1,2,8): (1,1,8) -0.512482 (1,2,7) 0.405729 (1,2,9) -0.417945 (1,3,8) 1.04956
(1,2,9): (1,1,9) -0.350927 (1,2,8) 0.417945 (1,2,10) -0.249660 (1,3,9) 0.662331
(1,2,10): (1,1,10) -0.259841 (1,2,9) 0.249660 (1,3,10) 0.459501
(1,3,1): (1,2,1) -0.217002 (1,3,2) 0.322900 (1,4,1) 0.205940
(1,3,2): (1,2,2) -0.338920 (1,3,1) -0.322900 (1,3,3) 0.651264 (1,4,2) 0.364345
(1,3,3): (1,2,3) -0.605964 (1,3,2) -0.651264 (1,3,4) 0.916399 (1,4,3) 0.764426
(1,3,4): (1,2,4) -1.02474 (1,3,3) -0.916399 (1,3,5) 0.907108 (1,4,4) 1.53252
(1,3,5): (1,2,5) -1.48283 (1,3,4) -0.907108 (1,3,6) 0.359273 (1,4,5) 2.58687
(1,3,6): (1,2,6) -1.65861 (1,3,5) -0.359273 (1,3,7) -0.320244 (1,4,6) 2.92195
(1,3,7): (1,2,7) -1.49214 (1,3,6) 0.320244 (1,3,8) -0.845693 (1,4,7) 2.59476
(1,3,8): (1,2,8) -1.04956 (1,3,7) 0.845693 (1,3,9) -0.804285 (1,4,8) 1.55368
(1,3,9): (1,2,9) -0.662331 (1,3,8) 0.804285 (1,3,10) -0.452084 (1,4,9) 0.815290
(1,3,10): (1,2,10) -0.459501 (1,3,9) 0.452084 (1,4,10) 0.484764
(1,4,1): (1,3,1) -0.205940 (1,4,2) 0.481485 (1,5,1) 2.789944E-02
(1,4,2): (1,3,2) -0.364345 (1,4,1) -0.481485 (1,4,3) 1.05243 (1,5,2) 0.132021
(1,4,3): (1,3,3) -0.764426 (1,4,2) -1.05243 (1,4,4) 1.68557 (1,5,3) 0.527499
(1,4,4): (1,3,4) -1.53252 (1,4,3) -1.68557 (1,4,5) 1.95568 (1,5,4) 1.71837
(1,4,5): (1,3,5) -2.58687 (1,4,4) -1.95568 (1,4,6) 0.688075 (1,5,5) 4.35405
(1,4,6): (1,3,6) -2.92195 (1,4,5) -0.688075 (1,4,7) -0.641163 (1,5,6) 4.77407
(1,4,7): (1,3,7) -2.59476 (1,4,6) 0.641163 (1,4,8) -1.88033 (1,5,7) 4.35400
(1,4,8): (1,3,8) -1.55368 (1,4,7) 1.88033 (1,4,9) -1.54260 (1,5,8) 1.71747
(1,4,9): (1,3,9) -0.815290 (1,4,8) 1.54260 (1,4,10) -0.782508 (1,5,9) 0.529226
(1,4,10): (1,3,10) -0.484764 (1,4,9) 0.782508 (1,5,10) 0.156246
(1,5,1): (1,4,1) -2.789944E-02 (1,5,2) 0.586064 (1,6,1) -0.317829
(1,5,2): (1,4,2) -0.132021 (1,5,1) -0.586064 (1,5,3) 1.45134 (1,6,2) -0.473452
(1,5,3): (1,4,3) -0.527499 (1,5,2) -1.45134 (1,5,4) 2.88875 (1,6,3) -0.618043
(1,5,4): (1,4,4) -1.71837 (1,5,3) -2.88875 (1,5,5) 4.59652 (1,6,4) 0.335650
(1,5,5): (1,4,5) -4.35405 (1,5,4) -4.59652 (1,5,6) 1.09670 (1,6,5) 8.20000
(1,5,6): (1,4,6) -4.77407 (1,5,5) -1.09670 (1,5,7) -1.04965 (1,6,6) 7.28517
(1,5,7): (1,4,7) -4.35400 (1,5,6) 1.04965 (1,5,8) -4.52039 (1,6,7) 8.18747
(1,5,8): (1,4,8) -1.71747 (1,5,7) 4.52039 (1,5,9) -2.74158 (1,6,8) 0.300065
(1,5,9): (1,4,9) -0.529226 (1,5,8) 2.74158 (1,5,10) -1.15768 (1,6,9) -0.702918
(1,5,10): (1,4,10) -0.156246 (1,5,9) 1.15768 (1,6,10) -0.657350
(1,6,1): (1,5,1) 0.317829 (1,6,2) 0.430273 (1,7,1) -0.625086
(1,6,2): (1,5,2) 0.473452 (1,6,1) -0.430273 (1,6,3) 1.30566 (1,7,2) -1.23030
(1,6,3): (1,5,3) 0.618043 (1,6,2) -1.30566 (1,6,4) 3.86938 (1,7,3) -3.06769
(1,6,4): (1,5,4) -0.335650 (1,6,3) -3.86938 (1,6,5) 12.7197 (1,7,4) -8.39818
(1,6,5): (1,5,5) -8.20000 (1,6,4) -12.7197 (1,6,6) 0.229628 (1,7,5) -25.8511
(1,6,6): (1,5,6) -7.28517 (1,6,5) -0.229628 (1,6,7) -0.194579 (1,7,6) -38.8094
(1,6,7): (1,5,7) -8.18747 (1,6,6) 0.194579 (1,6,8) -12.6649 (1,7,7) -25.8737
(1,6,8): (1,5,8) -0.300065 (1,6,7) 12.6649 (1,6,9) -3.77144 (1,7,8) -8.45688
(1,6,9): (1,5,9) 0.702918 (1,6,8) 3.77144 (1,6,10) -1.11194 (1,7,9) -3.21968
(1,6,10): (1,5,10) 0.657350 (1,6,9) 1.11194 (1,7,10) -1.61940
(1,7,1): (1,6,1) 0.625086 (1,7,2) -0.170515 (1,8,1) -0.474444
(1,7,2): (1,6,2) 1.23030 (1,7,1) 0.170515 (1,7,3) -0.503662 (1,8,2) -0.950985
(1,7,3): (1,6,3) 3.06769 (1,7,2) 0.503662 (1,7,4) -1.26713 (1,8,3) -2.40657
(1,7,4): (1,6,4) 8.39818 (1,7,3) 1.26713 (1,7,5) -3.24951 (1,8,4) -6.54444
(1,7,5): (1,6,5) 25.8511 (1,7,4) 3.24951 (1,7,6) -10.2697 (1,8,5) -18.9263
(1,7,6): (1,6,6) 38.8094 (1,7,5) 10.2697 (1,7,7) 10.2870 (1,8,6) -59.3863
(1,7,7): (1,6,7) 25.8737 (1,7,6) -10.2870 (1,7,8) 3.26406 (1,8,7) -18.9426
(1,7,8): (1,6,8) 8.45688 (1,7,7) -3.26406 (1,7,9) 1.26884 (1,8,8) -6.58797
(1,7,9): (1,6,9) 3.21968 (1,7,8) -1.26884 (1,7,10) 0.458742 (1,8,9) -2.52049
(1,7,10): (1,6,10) 1.61940 (1,7,9) -0.458742 (1,8,10) -1.24743
(1,8,1): (1,7,1) 0.474444 (1,8,2) -0.645605 (1,9,1) 2.651175E-02
(1,8,2): (1,7,2) 0.950985 (1,8,1) 0.645605 (1,8,3) -1.95267 (1,9,2) 0.142894
(1,8,3): (1,7,3) 2.40657 (1,8,2) 1.95267 (1,8,4) -5.35631 (1,9,3) 0.673766
(1,8,4): (1,7,4) 6.54444 (1,8,3) 5.35631 (1,8,5) -15.1851 (1,9,4) 2.86541
(1,8,5): (1,7,5) 18.9263 (1,8,4) 15.1851 (1,8,6) -46.0975 (1,9,5) 11.5747
(1,8,6): (1,7,6) 59.3863 (1,8,5) 46.0975 (1,8,7) 46.1010 (1,9,6) 47.5757
(1,8,7): (1,7,7) 18.9426 (1,8,6) -46.1010 (1,8,8) 15.1696 (1,9,7) 11.5741
(1,8,8): (1,7,8) 6.58797 (1,8,7) -15.1696 (1,8,9) 5.28375 (1,9,8) 2.86406
(1,8,9): (1,7,9) 2.52049 (1,8,8) -5.28375 (1,8,10) 1.72166 (1,9,9) 0.675576
(1,8,10): (1,7,10) 1.24743 (1,8,9) -1.72166 (1,9,10) 0.167923
(1,9,1): (1,8,1) -2.651175E-02 (1,9,2) -0.528630 (1,10,1) 0.346736
(1,9,2): (1,8,2) -0.142894 (1,9,1) 0.528630 (1,9,3) -1.41480 (1,10,2) 0.721958
(1,9,3): (1,8,3) -0.673766 (1,9,2) 1.41480 (1,9,4) -3.10633 (1,10,3) 1.88229
(1,9,4): (1,8,4) -2.86541 (1,9,3) 3.10633 (1,9,5) -6.12666 (1,10,4) 5.19344
(1,9,5): (1,8,5) -11.5747 (1,9,4) 6.12666 (1,9,6) -10.6286 (1,10,5) 15.2083
(1,9,6): (1,8,6) -47.5757 (1,9,5) 10.6286 (1,9,7) 10.6302 (1,10,6) 25.4333
(1,9,7): (1,8,7) -11.5741 (1,9,6) -10.6302 (1,9,8) 6.11179 (1,10,7) 15.2179
(1,9,8): (1,8,8) -2.86406 (1,9,7) -6.11179 (1,9,9) 3.03864 (1,10,8) 5.22230
(1,9,9): (1,8,9) -0.675576 (1,9,8) -3.03864 (1,9,10) 1.20850 (1,10,9) 1.96286
(1,9,10): (1,8,10) -0.167923 (1,9,9) -1.20850 (1,10,10) 0.941619
(1,10,1): (1,9,1) -0.346736 (1,10,2) -0.154133 (1,11,1) 0.309076
(1,10,2): (1,9,2) -0.721958 (1,10,1) 0.154133 (1,10,3) -0.259863 (1,11,2) 0.527923
(1,10,3): (1,9,3) -1.88229 (1,10,2) 0.259863 (1,10,4) 0.137688 (1,11,3) 0.981243
(1,10,4): (1,9,4) -5.19344 (1,10,3) -0.137688 (1,10,5) 3.18801 (1,11,4) 1.36191
(1,10,5): (1,9,5) -15.2083 (1,10,4) -3.18801 (1,10,6) -1.75943 (1,11,5) -0.718835
(1,10,6): (1,9,6) -25.4333 (1,10,5) 1.75943 (1,10,7) 1.76944 (1,11,6) 0.940221
(1,10,7): (1,9,7) -15.2179 (1,10,6) -1.76944 (1,10,8) -3.18274 (1,11,7) -0.708961
(1,10,8): (1,9,8) -5.22230 (1,10,7) 3.18274 (1,10,9) -0.151700 (1,11,8) 1.39171
(1,10,9): (1,9,9) -1.96286 (1,10,8) 0.151700 (1,10,10) 0.194956 (1,11,9) 1.05864
(1,10,10): (1,9,10) -0.941619 (1,10,9) -0.194956 (1,11,10) 0.713507
(1,11,1): (1,10,1) -0.309076 (1,11,2) 6.394454E-02 (1,12,1) 0.132221
(1,11,2): (1,10,2) -0.527923 (1,11,1) -6.394454E-02 (1,11,3) 0.190597 (1,12,2) 0.198113
(1,11,3): (1,10,3) -0.981243 (1,11,2) -0.190597 (1,11,4) 0.515243 (1,12,3) 0.283225
(1,11,4): (1,10,4) -1.36191 (1,11,3) -0.515243 (1,11,5) 1.07627 (1,12,4) 0.206775
(1,11,5): (1,10,5) 0.718835 (1,11,4) -1.07627 (1,11,6) -9.246431E-02 (1,12,5) -0.354034
(1,11,6): (1,10,6) -0.940221 (1,11,5) 9.246431E-02 (1,11,7) 0.112136 (1,12,6) -0.142225
(1,11,7): (1,10,7) 0.708961 (1,11,6) -0.112136 (1,11,8) -1.05131 (1,12,7) -0.349615
(1,11,8): (1,10,8) -1.39171 (1,11,7) 1.05131 (1,11,9) -0.481851 (1,12,8) 0.220549
(1,11,9): (1,10,9) -1.05864 (1,11,8) 0.481851 (1,11,10) -0.147459 (1,12,9) 0.318405
(1,11,10): (1,10,10) -0.713507 (1,11,9) 0.147459 (1,12,10) 0.276247
(1,12,1): (1,11,1) -0.132221 (1,12,2) 0.129792 (1,13,1) -1.248804E-02
(1,12,2): (1,11,2) -0.198113 (1,12,1) -0.129792 (1,12,3) 0.275703 (1,13,2) -2.122559E-02
(1,12,3): (1,11,3) -0.283225 (1,12,2) -0.275703 (1,12,4) 0.438617 (1,13,3) -6.352935E-02
(1,12,4): (1,11,4) -0.206775 (1,12,3) -0.438617 (1,12,5) 0.511981 (1,13,4) -0.190509
(1,12,5): (1,11,5) 0.354034 (1,12,4) -0.511981 (1,12,6) 0.118950 (1,13,5) -0.409222
(1,12,6): (1,11,6) 0.142225 (1,12,5) -0.118950 (1,12,7) -9.486803E-02 (1,13,6) -0.422231
(1,12,7): (1,11,7) 0.349615 (1,12,6) 9.486803E-02 (1,12,8) -0.477775 (1,13,7) -0.410387
(1,12,8): (1,11,8) -0.220549 (1,12,7) 0.477775 (1,12,9) -0.383838 (1,13,8) -0.192520
(1,12,9): (1,11,9) -0.318405 (1,12,8) 0.383838 (1,12,10) -0.189564 (1,13,9) -6.583845E-02
(1,12,10): (1,11,10) -0.276247 (1,12,9) 0.189564 (1,13,10) -2.427661E-02
(1,13,1): (1,12,1) 1.248804E-02 (1,13,2) 0.121045 (1,14,1) -6.959248E-02
(1,13,2): (1,12,2) 2.122559E-02 (1,13,1) -0.121045 (1,13,3) 0.233311 (1,14,2) -9.736531E-02
(1,13,3): (1,12,3) 6.352935E-02 (1,13,2) -0.233311 (1,13,4) 0.311330 (1,14,3) -0.159238
(1,13,4): (1,12,4) 0.190509 (1,13,3) -0.311330 (1,13,5) 0.293052 (1,14,4) -0.259313
(1,13,5): (1,12,5) 0.409222 (1,13,4) -0.293052 (1,13,6) 0.105978 (1,14,5) -0.370055
(1,13,6): (1,12,6) 0.422231 (1,13,5) -0.105978 (1,13,7) -8.306000E-02 (1,14,6) -0.402530
(1,13,7): (1,12,7) 0.410387 (1,13,6) 8.306000E-02 (1,13,8) -0.259767 (1,14,7) -0.373679
(1,13,8): (1,12,8) 0.192520 (1,13,7) 0.259767 (1,13,9) -0.256921 (1,14,8) -0.268217
(1,13,9): (1,12,9) 6.583845E-02 (1,13,8) 0.256921 (1,13,10) -0.147952 (1,14,9) -0.177193
(1,13,10): (1,12,10) 2.427661E-02 (1,13,9) 0.147952 (1,14,10) -0.131253
(1,14,1): (1,13,1) 6.959248E-02 (1,14,2) 9.326595E-02 (1,15,1) -5.338282E-02
(1,14,2): (1,13,2) 9.736531E-02 (1,14,1) -9.326595E-02 (1,14,3) 0.171394 (1,15,2) -7.245697E-02
(1,14,3): (1,13,3) 0.159238 (1,14,2) -0.171394 (1,14,4) 0.211204 (1,15,3) -0.110652
(1,14,4): (1,13,4) 0.259313 (1,14,3) -0.211204 (1,14,5) 0.182393 (1,15,4) -0.163585
(1,14,5): (1,13,5) 0.370055 (1,14,4) -0.182393 (1,14,6) 7.359536E-02 (1,15,5) -0.214058
(1,14,6): (1,13,6) 0.402530 (1,14,5) -7.359536E-02 (1,14,7) -5.429800E-02 (1,15,6) -0.232746
(1,14,7): (1,13,7) 0.373679 (1,14,6) 5.429800E-02 (1,14,8) -0.154420 (1,15,7) -0.216815
(1,14,8): (1,13,8) 0.268217 (1,14,7) 0.154420 (1,14,9) -0.165907 (1,15,8) -0.170483
(1,14,9): (1,13,9) 0.177193 (1,14,8) 0.165907 (1,14,10) -0.102025 (1,15,9) -0.124721
(1,14,10): (1,13,10) 0.131253 (1,14,9) 0.102025 (1,15,10) -9.870093E-02
(1,15,1): (1,14,1) 5.338282E-02 (1,15,2) 7.418788E-02
(1,15,2): (1,14,2) 7.245697E-02 (1,15,1) -7.418788E-02 (1,15,3) 0.133176
(1,15,3): (1,14,3) 0.110652 (1,15,2) -0.133176 (1,15,4) 0.158246
(1,15,4): (1,14,4) 0.163585 (1,15,3) -0.158246 (1,15,5) 0.131936
(1,15,5): (1,14,5) 0.214058 (1,15,4) -0.131936 (1,15,6) 5.493598E-02
(1,15,6): (1,14,6) 0.232746 (1,15,5) -5.493598E-02 (1,15,7) -3.839456E-02
(1,15,7): (1,14,7) 0.216815 (1,15,6) 3.839456E-02 (1,15,8) -0.108116
(1,15,8): (1,14,8) 0.170483 (1,15,7) 0.108116 (1,15,9) -0.120146
(1,15,9): (1,14,9) 0.124721 (1,15,8) 0.120146 (1,15,10) -7.601150E-02
(1,15,10): (1,14,10) 9.870093E-02 (1,15,9) 7.601150E-02

 WEL PACKAGE (WEL-1) FLOW RATES   PERIOD      2   STEP       97
 ----------------------------------------------------------------------------------------
   NUMBER   CELLID                    RATE       NAME                                    
 ----------------------------------------------------------------------------------------
     1      (1,8,6)              -199.27533      WEL                                     
 ----------------------------------------------------------------------------------------




 API PACKAGE (MAR) FLOW RATES   PERIOD      2   STEP       97
 -----------------------------------------------
   NUMBER   CELLID                    RATE      
 -----------------------------------------------
     1      (1,6,5)               46.666667     
     2      (1,6,6)               46.666667     
     3      (1,6,7)               46.666667     
     4      (1,10,5)              19.758443     
     5      (1,10,6)              19.758443     
     6      (1,10,7)              19.758443     
 -----------------------------------------------



1
  HEAD IN LAYER   1 AT END OF TIME STEP  97 IN STRESS PERIOD    2
  ---------------------------------------------------------------------------

            1           2           3           4           5           6           7           8           9          10
 ........................................................................................................................
   1   4.4635E-02  5.8478E-02  8.4002E-02  0.1154      0.1425      0.1537      0.1448      0.1213      9.6002E-02  8.0287E-02
   2   5.7415E-02  7.7360E-02  0.1153      0.1643      0.2086      0.2267      0.2115      0.1717      0.1306      0.1060    
   3   7.8945E-02  0.1109      0.1749      0.2642      0.3518      0.3864      0.3556      0.2739      0.1956      0.1513    
   4   9.9336E-02  0.1468      0.2495      0.4114      0.5959      0.6605      0.6003      0.4230      0.2750      0.1988    
   5   0.1021      0.1598      0.3007      0.5739      0.9920       1.091      0.9963      0.5852      0.3262      0.2141    
   6   7.0636E-02  0.1132      0.2407      0.6055       1.693       1.713       1.696      0.6135      0.2581      0.1497    
   7   8.5661E-03 -8.4708E-03 -5.8880E-02 -0.1863     -0.5175      -1.600     -0.5158     -0.1833     -5.5735E-02 -9.8153E-03
   8  -3.8838E-02 -0.1036     -0.3010     -0.8532      -2.513      -8.671      -2.513     -0.8544     -0.3092     -0.1347    
   9  -3.6177E-02 -8.9232E-02 -0.2320     -0.5500      -1.198      -2.406      -1.198     -0.5513     -0.2400     -0.1177    
  10  -1.4981E-03 -1.6914E-02 -4.2944E-02 -2.9135E-02  0.2810      0.1098      0.2819     -2.7636E-02 -4.2848E-02 -2.3306E-02
  11   2.9319E-02  3.5691E-02  5.4647E-02  0.1056      0.2110      0.2020      0.2130      0.1100      6.2360E-02  4.7705E-02
  12   4.2485E-02  5.5393E-02  8.2737E-02  0.1261      0.1764      0.1880      0.1787      0.1318      9.3904E-02  7.5124E-02
  13   4.1242E-02  5.3282E-02  7.6436E-02  0.1072      0.1362      0.1466      0.1384      0.1128      8.7382E-02  7.2715E-02
  14   3.4311E-02  4.3597E-02  6.0633E-02  8.1583E-02  9.9642E-02  0.1069      0.1016      8.6265E-02  6.9816E-02  5.9684E-02
  15   2.8991E-02  3.6383E-02  4.9635E-02  6.5357E-02  7.8448E-02  8.3895E-02  8.0088E-02  6.9362E-02  5.7430E-02  4.9873E-02

 HEAD WILL BE SAVED ON UNIT 1043 AT END OF TIME STEP   97, STRESS PERIOD    2


  VOLUME BUDGET FOR ENTIRE MODEL AT END OF TIME STEP   97, STRESS PERIOD   2
  ---------------------------------------------------------------------------------------------------

     CUMULATIVE VOLUME      L**3       RATES FOR THIS TIME STEP      L**3/T          PACKAGE NAME    
     ------------------                 ------------------------                     ----------------

           IN:                                      IN:
           ---                                      ---
              STO-SS =          28.1976                STO-SS =       1.2258E-02     STORAGE                          
              STO-SY =       65922.5630                STO-SY =          25.2858     STORAGE                          
                 WEL =           0.0000                   WEL =           0.0000     WEL-1                            
                 API =      213949.7743                   API =         199.2753     MAR                              
                 CHD =       2.8247E-08                   CHD =           0.0000     CHD_0                            

            TOTAL IN =      279900.5349              TOTAL IN =         224.5734

          OUT:                                     OUT:
          ----                                     ----
              STO-SS =          34.1546                STO-SS =       1.2998E-02     STORAGE                          
              STO-SY =       65916.6060                STO-SY =          25.2851     STORAGE                          
                 WEL =      213949.7743                   WEL =         199.2753     WEL-1                            
                 API =           0.0000                   API =           0.0000     MAR                              
                 CHD =       3.0388E-08                   CHD =           0.0000     CHD_0                            

           TOTAL OUT =      279900.5349             TOTAL OUT =         224.5734

            IN - OUT =       4.7542E-06              IN - OUT =       8.3391E-09

 PERCENT DISCREPANCY =           0.00     PERCENT DISCREPANCY =           0.00




         TIME SUMMARY AT END OF TIME STEP   97 IN STRESS PERIOD    2
                    SECONDS     MINUTES      HOURS       DAYS        YEARS
                    -----------------------------------------------------------
   TIME STEP LENGTH 8.64000E+05  14400.      240.00      10.000     2.73785E-02
 STRESS PERIOD TIME 8.38080E+07 1.39680E+06  23280.      970.00      2.6557    
         TOTAL TIME 8.38944E+07 1.39824E+06  23304.      971.00      2.6585    


end timestep


start timestep kper="2" kstp="98" mode="normal"

 UBDSV1 SAVING           STO-SS ON UNIT   1042 AT TIME STEP     98, STRESS PERIOD      2
 UBDSV1 SAVING           STO-SY ON UNIT   1042 AT TIME STEP     98, STRESS PERIOD      2
 UBDSV1 SAVING     FLOW-JA-FACE ON UNIT   1042 AT TIME STEP     98, STRESS PERIOD      2
 UBDSV06 SAVING       DATA-SPDIS IN MODEL GWF              PACKAGE NPF             CONNECTED TO MODEL GWF              PACKAGE NPF              ON UNIT   1042 AT TIME STEP     98, STRESS PERIOD      2
 UBDSV06 SAVING              WEL IN MODEL GWF              PACKAGE GWF             CONNECTED TO MODEL GWF              PACKAGE WEL-1            ON UNIT   1042 AT TIME STEP     98, STRESS PERIOD      2
 UBDSV06 SAVING              API IN MODEL GWF              PACKAGE GWF             CONNECTED TO MODEL GWF              PACKAGE MAR              ON UNIT   1042 AT TIME STEP     98, STRESS PERIOD      2
 UBDSV06 SAVING              CHD IN MODEL GWF              PACKAGE GWF             CONNECTED TO MODEL GWF              PACKAGE CHD_0            ON UNIT   1042 AT TIME STEP     98, STRESS PERIOD      2

    CALCULATED INTERCELL FLOW FOR PERIOD 2 STEP 98
(1,1,1): (1,1,2) 0.141277 (1,2,1) 0.129590
(1,1,2): (1,1,1) -0.141277 (1,1,3) 0.260859 (1,2,2) 0.191432
(1,1,3): (1,1,2) -0.260859 (1,1,4) 0.321735 (1,2,3) 0.318207
(1,1,4): (1,1,3) -0.321735 (1,1,5) 0.277518 (1,2,4) 0.498523
(1,1,5): (1,1,4) -0.277518 (1,1,6) 0.115562 (1,2,5) 0.676008
(1,1,6): (1,1,5) -0.115562 (1,1,7) -9.066176E-02 (1,2,6) 0.747872
(1,1,7): (1,1,6) 9.066176E-02 (1,1,8) -0.240267 (1,2,7) 0.681904
(1,1,8): (1,1,7) 0.240267 (1,1,9) -0.258843 (1,2,8) 0.514067
(1,1,9): (1,1,8) 0.258843 (1,1,10) -0.160191 (1,2,9) 0.352484
(1,1,10): (1,1,9) 0.160191 (1,2,10) 0.261373
(1,2,1): (1,1,1) -0.129590 (1,2,2) 0.203126 (1,3,1) 0.218083
(1,2,2): (1,1,2) -0.191432 (1,2,1) -0.203126 (1,2,3) 0.387720 (1,3,2) 0.340002
(1,2,3): (1,1,3) -0.318207 (1,2,2) -0.387720 (1,2,4) 0.502058 (1,3,3) 0.607026
(1,2,4): (1,1,4) -0.498523 (1,2,3) -0.502058 (1,2,5) 0.454631 (1,3,4) 1.02575
(1,2,5): (1,1,5) -0.676008 (1,2,4) -0.454631 (1,2,6) 0.187047 (1,3,5) 1.48379
(1,2,6): (1,1,6) -0.747872 (1,2,5) -0.187047 (1,2,7) -0.156263 (1,3,6) 1.65959
(1,2,7): (1,1,7) -0.681904 (1,2,6) 0.156263 (1,2,8) -0.407668 (1,3,7) 1.49319
(1,2,8): (1,1,8) -0.514067 (1,2,7) 0.407668 (1,2,9) -0.420281 (1,3,8) 1.05075
(1,2,9): (1,1,9) -0.352484 (1,2,8) 0.420281 (1,2,10) -0.251213 (1,3,9) 0.663657
(1,2,10): (1,1,10) -0.261373 (1,2,9) 0.251213 (1,3,10) 0.460902
(1,3,1): (1,2,1) -0.218083 (1,3,2) 0.325028 (1,4,1) 0.205470
(1,3,2): (1,2,2) -0.340002 (1,3,1) -0.325028 (1,3,3) 0.654866 (1,4,2) 0.363557
(1,3,3): (1,2,3) -0.607026 (1,3,2) -0.654866 (1,3,4) 0.920372 (1,4,3) 0.763087
(1,3,4): (1,2,4) -1.02575 (1,3,3) -0.920372 (1,3,5) 0.910268 (1,4,4) 1.53056
(1,3,5): (1,2,5) -1.48379 (1,3,4) -0.910268 (1,3,6) 0.360785 (1,4,5) 2.58440
(1,3,6): (1,2,6) -1.65959 (1,3,5) -0.360785 (1,3,7) -0.320648 (1,4,6) 2.91933
(1,3,7): (1,2,7) -1.49319 (1,3,6) 0.320648 (1,3,8) -0.847497 (1,4,7) 2.59228
(1,3,8): (1,2,8) -1.05075 (1,3,7) 0.847497 (1,3,9) -0.806493 (1,4,8) 1.55166
(1,3,9): (1,2,9) -0.663657 (1,3,8) 0.806493 (1,3,10) -0.453562 (1,4,9) 0.813773
(1,3,10): (1,2,10) -0.460902 (1,3,9) 0.453562 (1,4,10) 0.483571
(1,4,1): (1,3,1) -0.205470 (1,4,2) 0.483297 (1,5,1) 2.467790E-02
(1,4,2): (1,3,2) -0.363557 (1,4,1) -0.483297 (1,4,3) 1.05550 (1,5,2) 0.128013
(1,4,3): (1,3,3) -0.763087 (1,4,2) -1.05550 (1,4,4) 1.68895 (1,5,3) 0.522208
(1,4,4): (1,3,4) -1.53056 (1,4,3) -1.68895 (1,4,5) 1.95838 (1,5,4) 1.71175
(1,4,5): (1,3,5) -2.58440 (1,4,4) -1.95838 (1,4,6) 0.689460 (1,5,5) 4.34637
(1,4,6): (1,3,6) -2.91933 (1,4,5) -0.689460 (1,4,7) -0.641443 (1,5,6) 4.76615
(1,4,7): (1,3,7) -2.59228 (1,4,6) 0.641443 (1,4,8) -1.88171 (1,5,7) 4.34612
(1,4,8): (1,3,8) -1.55166 (1,4,7) 1.88171 (1,4,9) -1.54433 (1,5,8) 1.71038
(1,4,9): (1,3,9) -0.813773 (1,4,8) 1.54433 (1,4,10) -0.783671 (1,5,9) 0.523001
(1,4,10): (1,3,10) -0.483571 (1,4,9) 0.783671 (1,5,10) 0.150635
(1,5,1): (1,4,1) -2.467790E-02 (1,5,2) 0.587090 (1,6,1) -0.323777
(1,5,2): (1,4,2) -0.128013 (1,5,1) -0.587090 (1,5,3) 1.45314 (1,6,2) -0.480637
(1,5,3): (1,4,3) -0.522208 (1,5,2) -1.45314 (1,5,4) 2.89089 (1,6,3) -0.627178
(1,5,4): (1,4,4) -1.71175 (1,5,3) -2.89089 (1,5,5) 4.59835 (1,6,4) 0.324775
(1,5,5): (1,4,5) -4.34637 (1,5,4) -4.59835 (1,5,6) 1.09789 (1,6,5) 8.18774
(1,5,6): (1,4,6) -4.76615 (1,5,5) -1.09789 (1,5,7) -1.04992 (1,6,6) 7.27313
(1,5,7): (1,4,7) -4.34612 (1,5,6) 1.04992 (1,5,8) -4.52117 (1,6,7) 8.17484
(1,5,8): (1,4,8) -1.71038 (1,5,7) 4.52117 (1,5,9) -2.74252 (1,6,8) 0.288318
(1,5,9): (1,4,9) -0.523001 (1,5,8) 2.74252 (1,5,10) -1.15824 (1,6,9) -0.713714
(1,5,10): (1,4,10) -0.150635 (1,5,9) 1.15824 (1,6,10) -0.667300
(1,6,1): (1,5,1) 0.323777 (1,6,2) 0.430071 (1,7,1) -0.632277
(1,6,2): (1,5,2) 0.480637 (1,6,1) -0.430071 (1,6,3) 1.30551 (1,7,2) -1.23900
(1,6,3): (1,5,3) 0.627178 (1,6,2) -1.30551 (1,6,4) 3.86972 (1,7,3) -3.07878
(1,6,4): (1,5,4) -0.324775 (1,6,3) -3.86972 (1,6,5) 12.7209 (1,7,4) -8.41141
(1,6,5): (1,5,5) -8.18774 (1,6,4) -12.7209 (1,6,6) 0.230931 (1,7,5) -25.8652
(1,6,6): (1,5,6) -7.27313 (1,6,5) -0.230931 (1,6,7) -0.195320 (1,7,6) -38.8215
(1,6,7): (1,5,7) -8.17484 (1,6,6) 0.195320 (1,6,8) -12.6656 (1,7,7) -25.8882
(1,6,8): (1,5,8) -0.288318 (1,6,7) 12.6656 (1,6,9) -3.77136 (1,7,8) -8.47114
(1,6,9): (1,5,9) 0.713714 (1,6,8) 3.77136 (1,6,10) -1.11167 (1,7,9) -3.23274
(1,6,10): (1,5,10) 0.667300 (1,6,9) 1.11167 (1,7,10) -1.63140
(1,7,1): (1,6,1) 0.632277 (1,7,2) -0.172170 (1,8,1) -0.480660
(1,7,2): (1,6,2) 1.23900 (1,7,1) 0.172170 (1,7,3) -0.506002 (1,8,2) -0.958855
(1,7,3): (1,6,3) 3.07878 (1,7,2) 0.506002 (1,7,4) -1.26832 (1,8,3) -2.41729
(1,7,4): (1,6,4) 8.41141 (1,7,3) 1.26832 (1,7,5) -3.24768 (1,8,4) -6.55804
(1,7,5): (1,6,5) 25.8652 (1,7,4) 3.24768 (1,7,6) -10.2657 (1,8,5) -18.9401
(1,7,6): (1,6,6) 38.8215 (1,7,5) 10.2657 (1,7,7) 10.2832 (1,8,6) -59.3896
(1,7,7): (1,6,7) 25.8882 (1,7,6) -10.2832 (1,7,8) 3.26217 (1,8,7) -18.9567
(1,7,8): (1,6,8) 8.47114 (1,7,7) -3.26217 (1,7,9) 1.26948 (1,8,8) -6.60242
(1,7,9): (1,6,9) 3.23274 (1,7,8) -1.26948 (1,7,10) 0.459872 (1,8,9) -2.53289
(1,7,10): (1,6,10) 1.63140 (1,7,9) -0.459872 (1,8,10) -1.25824
(1,8,1): (1,7,1) 0.480660 (1,8,2) -0.648887 (1,9,1) 2.330739E-02
(1,8,2): (1,7,2) 0.958855 (1,8,1) 0.648887 (1,8,3) -1.95776 (1,9,2) 0.138218
(1,8,3): (1,7,3) 2.41729 (1,8,2) 1.95776 (1,8,4) -5.35993 (1,9,3) 0.665863
(1,8,4): (1,7,4) 6.55804 (1,8,3) 5.35993 (1,8,5) -15.1813 (1,9,4) 2.85164
(1,8,5): (1,7,5) 18.9401 (1,8,4) 15.1813 (1,8,6) -46.0742 (1,9,5) 11.5493
(1,8,6): (1,7,6) 59.3896 (1,8,5) 46.0742 (1,8,7) 46.0775 (1,9,6) 47.5198
(1,8,7): (1,7,7) 18.9567 (1,8,6) -46.0775 (1,8,8) 15.1652 (1,9,7) 11.5485
(1,8,8): (1,7,8) 6.60242 (1,8,7) -15.1652 (1,8,9) 5.28591 (1,9,8) 2.84988
(1,8,9): (1,7,9) 2.53289 (1,8,8) -5.28591 (1,8,10) 1.72423 (1,9,9) 0.666814
(1,8,10): (1,7,10) 1.25824 (1,8,9) -1.72423 (1,9,10) 0.161536
(1,9,1): (1,8,1) -2.330739E-02 (1,9,2) -0.533382 (1,10,1) 0.347467
(1,9,2): (1,8,2) -0.138218 (1,9,1) 0.533382 (1,9,3) -1.42309 (1,10,2) 0.722143
(1,9,3): (1,8,3) -0.665863 (1,9,2) 1.42309 (1,9,4) -3.11554 (1,10,3) 1.88074
(1,9,4): (1,8,4) -2.85164 (1,9,3) 3.11554 (1,9,5) -6.13255 (1,10,4) 5.18698
(1,9,5): (1,8,5) -11.5493 (1,9,4) 6.13255 (1,9,6) -10.6241 (1,10,5) 15.1876
(1,9,6): (1,8,6) -47.5198 (1,9,5) 10.6241 (1,9,7) 10.6254 (1,10,6) 25.4023
(1,9,7): (1,8,7) -11.5485 (1,9,6) -10.6254 (1,9,8) 6.11683 (1,10,7) 15.1972
(1,9,8): (1,8,8) -2.84988 (1,9,7) -6.11683 (1,9,9) 3.04594 (1,10,8) 5.21599
(1,9,9): (1,8,9) -0.666814 (1,9,8) -3.04594 (1,9,10) 1.21341 (1,10,9) 1.96149
(1,9,10): (1,8,10) -0.161536 (1,9,9) -1.21341 (1,10,10) 0.941901
(1,10,1): (1,9,1) -0.347467 (1,10,2) -0.159412 (1,11,1) 0.312946
(1,10,2): (1,9,2) -0.722143 (1,10,1) 0.159412 (1,10,3) -0.269777 (1,11,2) 0.532609
(1,10,3): (1,9,3) -1.88074 (1,10,2) 0.269777 (1,10,4) 0.124111 (1,11,3) 0.987422
(1,10,4): (1,9,4) -5.18698 (1,10,3) -0.124111 (1,10,5) 3.16950 (1,11,4) 1.37068
(1,10,5): (1,9,5) -15.1876 (1,10,4) -3.16950 (1,10,6) -1.76299 (1,11,5) -0.702859
(1,10,6): (1,9,6) -25.4023 (1,10,5) 1.76299 (1,10,7) 1.77275 (1,11,6) 0.956065
(1,10,7): (1,9,7) -15.1972 (1,10,6) -1.77275 (1,10,8) -3.16495 (1,11,7) -0.692771
(1,10,8): (1,9,8) -5.21599 (1,10,7) 3.16495 (1,10,9) -0.139901 (1,11,8) 1.40101
(1,10,9): (1,9,9) -1.96149 (1,10,8) 0.139901 (1,10,10) 0.201440 (1,11,9) 1.06586
(1,10,10): (1,9,10) -0.941901 (1,10,9) -0.201440 (1,11,10) 0.719946
(1,11,1): (1,10,1) -0.312946 (1,11,2) 5.947377E-02 (1,12,1) 0.137118
(1,11,2): (1,10,2) -0.532609 (1,11,1) -5.947377E-02 (1,11,3) 0.182150 (1,12,2) 0.204558
(1,11,3): (1,10,3) -0.987422 (1,11,2) -0.182150 (1,11,4) 0.504161 (1,12,3) 0.292591
(1,11,4): (1,10,4) -1.37068 (1,11,3) -0.504161 (1,11,5) 1.06537 (1,12,4) 0.220133
(1,11,5): (1,10,5) 0.702859 (1,11,4) -1.06537 (1,11,6) -9.612274E-02 (1,12,5) -0.336154
(1,11,6): (1,10,6) -0.956065 (1,11,5) 9.612274E-02 (1,11,7) 0.115762 (1,12,6) -0.123034
(1,11,7): (1,10,7) 0.692771 (1,11,6) -0.115762 (1,11,8) -1.04082 (1,12,7) -0.331489
(1,11,8): (1,10,8) -1.40101 (1,11,7) 1.04082 (1,11,9) -0.472049 (1,12,8) 0.234542
(1,11,9): (1,10,9) -1.06586 (1,11,8) 0.472049 (1,11,10) -0.141730 (1,12,9) 0.329100
(1,11,10): (1,10,10) -0.719946 (1,11,9) 0.141730 (1,12,10) 0.285140
(1,12,1): (1,11,1) -0.137118 (1,12,2) 0.126862 (1,13,1) -8.491637E-03
(1,12,2): (1,11,2) -0.204558 (1,12,1) -0.126862 (1,12,3) 0.270164 (1,13,2) -1.571335E-02
(1,12,3): (1,11,3) -0.292591 (1,12,2) -0.270164 (1,12,4) 0.431551 (1,13,3) -5.521089E-02
(1,12,4): (1,11,4) -0.220133 (1,12,3) -0.431551 (1,12,5) 0.505651 (1,13,4) -0.178643
(1,12,5): (1,11,5) 0.336154 (1,12,4) -0.505651 (1,12,6) 0.116637 (1,13,5) -0.394095
(1,12,6): (1,11,6) 0.123034 (1,12,5) -0.116637 (1,12,7) -9.234503E-02 (1,13,6) -0.405873
(1,12,7): (1,11,7) 0.331489 (1,12,6) 9.234503E-02 (1,12,8) -0.471461 (1,13,7) -0.395079
(1,12,8): (1,11,8) -0.234542 (1,12,7) 0.471461 (1,12,9) -0.377358 (1,13,8) -0.180158
(1,12,9): (1,11,9) -0.329100 (1,12,8) 0.377358 (1,12,10) -0.185629 (1,13,9) -5.641805E-02
(1,12,10): (1,11,10) -0.285140 (1,12,9) 0.185629 (1,13,10) -1.661951E-02
(1,13,1): (1,12,1) 8.491637E-03 (1,13,2) 0.119632 (1,14,1) -6.724356E-02
(1,13,2): (1,12,2) 1.571335E-02 (1,13,1) -0.119632 (1,13,3) 0.230583 (1,14,2) -9.395271E-02
(1,13,3): (1,12,3) 5.521089E-02 (1,13,2) -0.230583 (1,13,4) 0.307815 (1,14,3) -0.153872
(1,13,4): (1,12,4) 0.178643 (1,13,3) -0.307815 (1,13,5) 0.289968 (1,14,4) -0.251545
(1,13,5): (1,12,5) 0.394095 (1,13,4) -0.289968 (1,13,6) 0.104890 (1,14,5) -0.360209
(1,13,6): (1,12,6) 0.405873 (1,13,5) -0.104890 (1,13,7) -8.158250E-02 (1,14,6) -0.391866
(1,13,7): (1,12,7) 0.395079 (1,13,6) 8.158250E-02 (1,13,8) -0.256382 (1,14,7) -0.363744
(1,13,8): (1,12,8) 0.180158 (1,13,7) 0.256382 (1,13,9) -0.253380 (1,14,8) -0.260175
(1,13,9): (1,12,9) 5.641805E-02 (1,13,8) 0.253380 (1,13,10) -0.145780 (1,14,9) -0.171165
(1,13,10): (1,12,10) 1.661951E-02 (1,13,9) 0.145780 (1,14,10) -0.126472
(1,14,1): (1,13,1) 6.724356E-02 (1,14,2) 9.291607E-02 (1,15,1) -5.243016E-02
(1,14,2): (1,13,2) 9.395271E-02 (1,14,1) -9.291607E-02 (1,14,3) 0.170619 (1,15,2) -7.098911E-02
(1,14,3): (1,13,3) 0.153872 (1,14,2) -0.170619 (1,14,4) 0.210088 (1,15,3) -0.108240
(1,14,4): (1,13,4) 0.251545 (1,14,3) -0.210088 (1,14,5) 0.181378 (1,15,4) -0.160022
(1,14,5): (1,13,5) 0.360209 (1,14,4) -0.181378 (1,14,6) 7.332119E-02 (1,15,5) -0.209518
(1,14,6): (1,13,6) 0.391866 (1,14,5) -7.332119E-02 (1,14,7) -5.354433E-02 (1,15,6) -0.227821
(1,14,7): (1,13,7) 0.363744 (1,14,6) 5.354433E-02 (1,14,8) -0.152921 (1,15,7) -0.212247
(1,14,8): (1,13,8) 0.260175 (1,14,7) 0.152921 (1,14,9) -0.164376 (1,15,8) -0.166818
(1,14,9): (1,13,9) 0.171165 (1,14,8) 0.164376 (1,14,10) -0.101098 (1,15,9) -0.122034
(1,14,10): (1,13,10) 0.126472 (1,14,9) 0.101098 (1,15,10) -9.662691E-02
(1,15,1): (1,14,1) 5.243016E-02 (1,15,2) 7.435309E-02
(1,15,2): (1,14,2) 7.098911E-02 (1,15,1) -7.435309E-02 (1,15,3) 0.133345
(1,15,3): (1,14,3) 0.108240 (1,15,2) -0.133345 (1,15,4) 0.158280
(1,15,4): (1,14,4) 0.160022 (1,15,3) -0.158280 (1,15,5) 0.131896
(1,15,5): (1,14,5) 0.209518 (1,15,4) -0.131896 (1,15,6) 5.504597E-02
(1,15,6): (1,14,6) 0.227821 (1,15,5) -5.504597E-02 (1,15,7) -3.799663E-02
(1,15,7): (1,14,7) 0.212247 (1,15,6) 3.799663E-02 (1,15,8) -0.107519
(1,15,8): (1,14,8) 0.166818 (1,15,7) 0.107519 (1,15,9) -0.119593
(1,15,9): (1,14,9) 0.122034 (1,15,8) 0.119593 (1,15,10) -7.569640E-02
(1,15,10): (1,14,10) 9.662691E-02 (1,15,9) 7.569640E-02

 WEL PACKAGE (WEL-1) FLOW RATES   PERIOD      2   STEP       98
 ----------------------------------------------------------------------------------------
   NUMBER   CELLID                    RATE       NAME                                    
 ----------------------------------------------------------------------------------------
     1      (1,8,6)              -199.17366      WEL                                     
 ----------------------------------------------------------------------------------------




 API PACKAGE (MAR) FLOW RATES   PERIOD      2   STEP       98
 -----------------------------------------------
   NUMBER   CELLID                    RATE      
 -----------------------------------------------
     1      (1,6,5)               46.666667     
     2      (1,6,6)               46.666667     
     3      (1,6,7)               46.666667     
     4      (1,10,5)              19.724552     
     5      (1,10,6)              19.724552     
     6      (1,10,7)              19.724552     
 -----------------------------------------------



1
  HEAD IN LAYER   1 AT END OF TIME STEP  98 IN STRESS PERIOD    2
  ---------------------------------------------------------------------------

            1           2           3           4           5           6           7           8           9          10
 ........................................................................................................................
   1   4.5989E-02  6.0032E-02  8.5896E-02  0.1177      0.1451      0.1564      0.1475      0.1238      9.8257E-02  8.2394E-02
   2   5.8872E-02  7.9025E-02  0.1173      0.1667      0.2113      0.2295      0.2143      0.1744      0.1330      0.1083    
   3   8.0506E-02  0.1126      0.1770      0.2666      0.3546      0.3893      0.3584      0.2766      0.1981      0.1536    
   4   0.1008      0.1485      0.2514      0.4136      0.5984      0.6631      0.6029      0.4254      0.2773      0.2010    
   5   0.1033      0.1611      0.3021      0.5755      0.9937       1.093      0.9981      0.5870      0.3279      0.2158    
   6   7.1244E-02  0.1138      0.2412      0.6061       1.694       1.714       1.697      0.6141      0.2588      0.1505    
   7   8.4634E-03 -8.7391E-03 -5.9384E-02 -0.1870     -0.5179      -1.601     -0.5163     -0.1839     -5.6283E-02 -1.0249E-02
   8  -3.9562E-02 -0.1047     -0.3026     -0.8553      -2.515      -8.671      -2.515     -0.8566     -0.3110     -0.1362    
   9  -3.7223E-02 -9.0760E-02 -0.2344     -0.5534      -1.203      -2.410      -1.202     -0.5548     -0.2427     -0.1199    
  10  -2.4673E-03 -1.8412E-02 -4.5440E-02 -3.2988E-02  0.2755      0.1039      0.2764     -3.1583E-02 -4.5618E-02 -2.5422E-02
  11   2.8738E-02  3.4664E-02  5.2784E-02  0.1027      0.2071      0.1976      0.2090      0.1070      6.0329E-02  4.6241E-02
  12   4.2392E-02  5.5008E-02  8.1805E-02  0.1244      0.1741      0.1856      0.1765      0.1302      9.2936E-02  7.4544E-02
  13   4.1546E-02  5.3446E-02  7.6329E-02  0.1068      0.1354      0.1457      0.1377      0.1124      8.7346E-02  7.2894E-02
  14   3.4849E-02  4.4100E-02  6.1059E-02  8.1897E-02  9.9855E-02  0.1071      0.1018      8.6674E-02  7.0378E-02  6.0338E-02
  15   2.9625E-02  3.7033E-02  5.0300E-02  6.6024E-02  7.9111E-02  8.4569E-02  8.0801E-02  7.0135E-02  5.8260E-02  5.0734E-02

 HEAD WILL BE SAVED ON UNIT 1043 AT END OF TIME STEP   98, STRESS PERIOD    2


  VOLUME BUDGET FOR ENTIRE MODEL AT END OF TIME STEP   98, STRESS PERIOD   2
  ---------------------------------------------------------------------------------------------------

     CUMULATIVE VOLUME      L**3       RATES FOR THIS TIME STEP      L**3/T          PACKAGE NAME    
     ------------------                 ------------------------                     ----------------

           IN:                                      IN:
           ---                                      ---
              STO-SS =          28.3192                STO-SS =       1.2161E-02     STORAGE                          
              STO-SY =       66173.4235                STO-SY =          25.0860     STORAGE                          
                 WEL =           0.0000                   WEL =           0.0000     WEL-1                            
                 API =      215941.5109                   API =         199.1737     MAR                              
                 CHD =       2.8247E-08                   CHD =           0.0000     CHD_0                            

            TOTAL IN =      282143.2535              TOTAL IN =         224.2719

          OUT:                                     OUT:
          ----                                     ----
              STO-SS =          34.2836                STO-SS =       1.2897E-02     STORAGE                          
              STO-SY =       66167.4591                STO-SY =          25.0853     STORAGE                          
                 WEL =      215941.5108                   WEL =         199.1737     WEL-1                            
                 API =           0.0000                   API =           0.0000     MAR                              
                 CHD =       3.0388E-08                   CHD =           0.0000     CHD_0                            

           TOTAL OUT =      282143.2535             TOTAL OUT =         224.2719

            IN - OUT =       4.8358E-06              IN - OUT =       8.1511E-09

 PERCENT DISCREPANCY =           0.00     PERCENT DISCREPANCY =           0.00




         TIME SUMMARY AT END OF TIME STEP   98 IN STRESS PERIOD    2
                    SECONDS     MINUTES      HOURS       DAYS        YEARS
                    -----------------------------------------------------------
   TIME STEP LENGTH 8.64000E+05  14400.      240.00      10.000     2.73785E-02
 STRESS PERIOD TIME 8.46720E+07 1.41120E+06  23520.      980.00      2.6831    
         TOTAL TIME 8.47584E+07 1.41264E+06  23544.      981.00      2.6858    


end timestep


start timestep kper="2" kstp="99" mode="normal"

 UBDSV1 SAVING           STO-SS ON UNIT   1042 AT TIME STEP     99, STRESS PERIOD      2
 UBDSV1 SAVING           STO-SY ON UNIT   1042 AT TIME STEP     99, STRESS PERIOD      2
 UBDSV1 SAVING     FLOW-JA-FACE ON UNIT   1042 AT TIME STEP     99, STRESS PERIOD      2
 UBDSV06 SAVING       DATA-SPDIS IN MODEL GWF              PACKAGE NPF             CONNECTED TO MODEL GWF              PACKAGE NPF              ON UNIT   1042 AT TIME STEP     99, STRESS PERIOD      2
 UBDSV06 SAVING              WEL IN MODEL GWF              PACKAGE GWF             CONNECTED TO MODEL GWF              PACKAGE WEL-1            ON UNIT   1042 AT TIME STEP     99, STRESS PERIOD      2
 UBDSV06 SAVING              API IN MODEL GWF              PACKAGE GWF             CONNECTED TO MODEL GWF              PACKAGE MAR              ON UNIT   1042 AT TIME STEP     99, STRESS PERIOD      2
 UBDSV06 SAVING              CHD IN MODEL GWF              PACKAGE GWF             CONNECTED TO MODEL GWF              PACKAGE CHD_0            ON UNIT   1042 AT TIME STEP     99, STRESS PERIOD      2

    CALCULATED INTERCELL FLOW FOR PERIOD 2 STEP 99
(1,1,1): (1,1,2) 0.143292 (1,2,1) 0.130604
(1,1,2): (1,1,1) -0.143292 (1,1,3) 0.264294 (1,2,2) 0.192522
(1,1,3): (1,1,2) -0.264294 (1,1,4) 0.325559 (1,2,3) 0.319414
(1,1,4): (1,1,3) -0.325559 (1,1,5) 0.280578 (1,2,4) 0.499845
(1,1,5): (1,1,4) -0.280578 (1,1,6) 0.116984 (1,2,5) 0.677417
(1,1,6): (1,1,5) -0.116984 (1,1,7) -9.113458E-02 (1,2,6) 0.749337
(1,1,7): (1,1,6) 9.113458E-02 (1,1,8) -0.242145 (1,2,7) 0.683391
(1,1,8): (1,1,7) 0.242145 (1,1,9) -0.261095 (1,2,8) 0.515554
(1,1,9): (1,1,8) 0.261095 (1,1,10) -0.161684 (1,2,9) 0.353953
(1,1,10): (1,1,9) 0.161684 (1,2,10) 0.262824
(1,2,1): (1,1,1) -0.130604 (1,2,2) 0.205217 (1,3,1) 0.219086
(1,2,2): (1,1,2) -0.192522 (1,2,1) -0.205217 (1,2,3) 0.391274 (1,3,2) 0.340994
(1,2,3): (1,1,3) -0.319414 (1,2,2) -0.391274 (1,2,4) 0.506002 (1,3,3) 0.607978
(1,2,4): (1,1,4) -0.499845 (1,2,3) -0.506002 (1,2,5) 0.457781 (1,3,4) 1.02664
(1,2,5): (1,1,5) -0.677417 (1,2,4) -0.457781 (1,2,6) 0.188525 (1,3,5) 1.48461
(1,2,6): (1,1,6) -0.749337 (1,2,5) -0.188525 (1,2,7) -0.156713 (1,3,6) 1.66041
(1,2,7): (1,1,7) -0.683391 (1,2,6) 0.156713 (1,2,8) -0.409547 (1,3,7) 1.49409
(1,2,8): (1,1,8) -0.515554 (1,2,7) 0.409547 (1,2,9) -0.422552 (1,3,8) 1.05180
(1,2,9): (1,1,9) -0.353953 (1,2,8) 0.422552 (1,2,10) -0.252723 (1,3,9) 0.664850
(1,2,10): (1,1,10) -0.262824 (1,2,9) 0.252723 (1,3,10) 0.462177
(1,3,1): (1,2,1) -0.219086 (1,3,2) 0.327108 (1,4,1) 0.204925
(1,3,2): (1,2,2) -0.340994 (1,3,1) -0.327108 (1,3,3) 0.658388 (1,4,2) 0.362690
(1,3,3): (1,2,3) -0.607978 (1,3,2) -0.658388 (1,3,4) 0.924258 (1,4,3) 0.761667
(1,3,4): (1,2,4) -1.02664 (1,3,3) -0.924258 (1,3,5) 0.913363 (1,4,4) 1.52852
(1,3,5): (1,2,5) -1.48461 (1,3,4) -0.913363 (1,3,6) 0.362275 (1,4,5) 2.58184
(1,3,6): (1,2,6) -1.66041 (1,3,5) -0.362275 (1,3,7) -0.321023 (1,4,6) 2.91663
(1,3,7): (1,2,7) -1.49409 (1,3,6) 0.321023 (1,3,8) -0.849233 (1,4,7) 2.58971
(1,3,8): (1,2,8) -1.05180 (1,3,7) 0.849233 (1,3,9) -0.808626 (1,4,8) 1.54955
(1,3,9): (1,2,9) -0.664850 (1,3,8) 0.808626 (1,3,10) -0.454991 (1,4,9) 0.812154
(1,3,10): (1,2,10) -0.462177 (1,3,9) 0.454991 (1,4,10) 0.482272
(1,4,1): (1,3,1) -0.204925 (1,4,2) 0.485059 (1,5,1) 2.141863E-02
(1,4,2): (1,3,2) -0.362690 (1,4,1) -0.485059 (1,4,3) 1.05848 (1,5,2) 0.123982
(1,4,3): (1,3,3) -0.761667 (1,4,2) -1.05848 (1,4,4) 1.69225 (1,5,3) 0.516922
(1,4,4): (1,3,4) -1.52852 (1,4,3) -1.69225 (1,4,5) 1.96102 (1,5,4) 1.70517
(1,4,5): (1,3,5) -2.58184 (1,4,4) -1.96102 (1,4,6) 0.690820 (1,5,5) 4.33874
(1,4,6): (1,3,6) -2.91663 (1,4,5) -0.690820 (1,4,7) -0.641696 (1,5,6) 4.75829
(1,4,7): (1,3,7) -2.58971 (1,4,6) 0.641696 (1,4,8) -1.88303 (1,5,7) 4.33830
(1,4,8): (1,3,8) -1.54955 (1,4,7) 1.88303 (1,4,9) -1.54599 (1,5,8) 1.70331
(1,4,9): (1,3,9) -0.812154 (1,4,8) 1.54599 (1,4,10) -0.784789 (1,5,9) 0.516771
(1,4,10): (1,3,10) -0.482272 (1,4,9) 0.784789 (1,5,10) 0.144997
(1,5,1): (1,4,1) -2.141863E-02 (1,5,2) 0.588082 (1,6,1) -0.329713
(1,5,2): (1,4,2) -0.123982 (1,5,1) -0.588082 (1,5,3) 1.45488 (1,6,2) -0.487777
(1,5,3): (1,4,3) -0.516922 (1,5,2) -1.45488 (1,5,4) 2.89296 (1,6,3) -0.636212
(1,5,4): (1,4,4) -1.70517 (1,5,3) -2.89296 (1,5,5) 4.60014 (1,6,4) 0.314056
(1,5,5): (1,4,5) -4.33874 (1,5,4) -4.60014 (1,5,6) 1.09906 (1,6,5) 8.17568
(1,5,6): (1,4,6) -4.75829 (1,5,5) -1.09906 (1,5,7) -1.05016 (1,6,6) 7.26129
(1,5,7): (1,4,7) -4.33830 (1,5,6) 1.05016 (1,5,8) -4.52192 (1,6,7) 8.16240
(1,5,8): (1,4,8) -1.70331 (1,5,7) 4.52192 (1,5,9) -2.74342 (1,6,8) 0.276724
(1,5,9): (1,4,9) -0.516771 (1,5,8) 2.74342 (1,5,10) -1.15879 (1,6,9) -0.724404
(1,5,10): (1,4,10) -0.144997 (1,5,9) 1.15879 (1,6,10) -0.677178
(1,6,1): (1,5,1) 0.329713 (1,6,2) 0.429867 (1,7,1) -0.639430
(1,6,2): (1,5,2) 0.487777 (1,6,1) -0.429867 (1,6,3) 1.30535 (1,7,2) -1.24762
(1,6,3): (1,5,3) 0.636212 (1,6,2) -1.30535 (1,6,4) 3.87005 (1,7,3) -3.08972
(1,6,4): (1,5,4) -0.314056 (1,6,3) -3.87005 (1,6,5) 12.7220 (1,7,4) -8.42442
(1,6,5): (1,5,5) -8.17568 (1,6,4) -12.7220 (1,6,6) 0.232211 (1,7,5) -25.8790
(1,6,6): (1,5,6) -7.26129 (1,6,5) -0.232211 (1,6,7) -0.196043 (1,7,6) -38.8333
(1,6,7): (1,5,7) -8.16240 (1,6,6) 0.196043 (1,6,8) -12.6662 (1,7,7) -25.9024
(1,6,8): (1,5,8) -0.276724 (1,6,7) 12.6662 (1,6,9) -3.77130 (1,7,8) -8.48518
(1,6,9): (1,5,9) 0.724404 (1,6,8) 3.77130 (1,6,10) -1.11140 (1,7,9) -3.24564
(1,6,10): (1,5,10) 0.677178 (1,6,9) 1.11140 (1,7,10) -1.64328
(1,7,1): (1,6,1) 0.639430 (1,7,2) -0.173785 (1,8,1) -0.486854
(1,7,2): (1,6,2) 1.24762 (1,7,1) 0.173785 (1,7,3) -0.508274 (1,8,2) -0.966663
(1,7,3): (1,6,3) 3.08972 (1,7,2) 0.508274 (1,7,4) -1.26945 (1,8,3) -2.42787
(1,7,4): (1,6,4) 8.42442 (1,7,3) 1.26945 (1,7,5) -3.24587 (1,8,4) -6.57142
(1,7,5): (1,6,5) 25.8790 (1,7,4) 3.24587 (1,7,6) -10.2618 (1,8,5) -18.9536
(1,7,6): (1,6,6) 38.8333 (1,7,5) 10.2618 (1,7,7) 10.2794 (1,8,6) -59.3928
(1,7,7): (1,6,7) 25.9024 (1,7,6) -10.2794 (1,7,8) 3.26028 (1,8,7) -18.9706
(1,7,8): (1,6,8) 8.48518 (1,7,7) -3.26028 (1,7,9) 1.27006 (1,8,8) -6.61665
(1,7,9): (1,6,9) 3.24564 (1,7,8) -1.27006 (1,7,10) 0.460949 (1,8,9) -2.54514
(1,7,10): (1,6,10) 1.64328 (1,7,9) -0.460949 (1,8,10) -1.26897
(1,8,1): (1,7,1) 0.486854 (1,8,2) -0.652089 (1,9,1) 2.007805E-02
(1,8,2): (1,7,2) 0.966663 (1,8,1) 0.652089 (1,8,3) -1.96272 (1,9,2) 0.133542
(1,8,3): (1,7,3) 2.42787 (1,8,2) 1.96272 (1,8,4) -5.36342 (1,9,3) 0.658021
(1,8,4): (1,7,4) 6.57142 (1,8,3) 5.36342 (1,8,5) -15.1776 (1,9,4) 2.83804
(1,8,5): (1,7,5) 18.9536 (1,8,4) 15.1776 (1,8,6) -46.0513 (1,9,5) 11.5244
(1,8,6): (1,7,6) 59.3928 (1,8,5) 46.0513 (1,8,7) 46.0544 (1,9,6) 47.4650
(1,8,7): (1,7,7) 18.9706 (1,8,6) -46.0544 (1,8,8) 15.1607 (1,9,7) 11.5234
(1,8,8): (1,7,8) 6.61665 (1,8,7) -15.1607 (1,8,9) 5.28795 (1,9,8) 2.83587
(1,8,9): (1,7,9) 2.54514 (1,8,8) -5.28795 (1,8,10) 1.72669 (1,9,9) 0.658106
(1,8,10): (1,7,10) 1.26897 (1,8,9) -1.72669 (1,9,10) 0.155149
(1,9,1): (1,8,1) -2.007805E-02 (1,9,2) -0.538028 (1,10,1) 0.348132
(1,9,2): (1,8,2) -0.133542 (1,9,1) 0.538028 (1,9,3) -1.43118 (1,10,2) 0.722258
(1,9,3): (1,8,3) -0.658021 (1,9,2) 1.43118 (1,9,4) -3.12450 (1,10,3) 1.87912
(1,9,4): (1,8,4) -2.83804 (1,9,3) 3.12450 (1,9,5) -6.13827 (1,10,4) 5.18055
(1,9,5): (1,8,5) -11.5244 (1,9,4) 6.13827 (1,9,6) -10.6196 (1,10,5) 15.1672
(1,9,6): (1,8,6) -47.4650 (1,9,5) 10.6196 (1,9,7) 10.6206 (1,10,6) 25.3718
(1,9,7): (1,8,7) -11.5234 (1,9,6) -10.6206 (1,9,8) 6.12169 (1,10,7) 15.1769
(1,9,8): (1,8,8) -2.83587 (1,9,7) -6.12169 (1,9,9) 3.05301 (1,10,8) 5.20969
(1,9,9): (1,8,9) -0.658106 (1,9,8) -3.05301 (1,9,10) 1.21817 (1,10,9) 1.96005
(1,9,10): (1,8,10) -0.155149 (1,9,9) -1.21817 (1,10,10) 0.942082
(1,10,1): (1,9,1) -0.348132 (1,10,2) -0.164591 (1,11,1) 0.316750
(1,10,2): (1,9,2) -0.722258 (1,10,1) 0.164591 (1,10,3) -0.279483 (1,11,2) 0.537191
(1,10,3): (1,9,3) -1.87912 (1,10,2) 0.279483 (1,10,4) 0.110847 (1,11,3) 0.993427
(1,10,4): (1,9,4) -5.18055 (1,10,3) -0.110847 (1,10,5) 3.15139 (1,11,4) 1.37918
(1,10,5): (1,9,5) -15.1672 (1,10,4) -3.15139 (1,10,6) -1.76645 (1,11,5) -0.687332
(1,10,6): (1,9,6) -25.3718 (1,10,5) 1.76645 (1,10,7) 1.77594 (1,11,6) 0.971452
(1,10,7): (1,9,7) -15.1769 (1,10,6) -1.77594 (1,10,8) -3.14759 (1,11,7) -0.677031
(1,10,8): (1,9,8) -5.20969 (1,10,7) 3.14759 (1,10,9) -0.128418 (1,11,8) 1.41003
(1,10,9): (1,9,9) -1.96005 (1,10,8) 0.128418 (1,10,10) 0.207747 (1,11,9) 1.07288
(1,10,10): (1,9,10) -0.942082 (1,10,9) -0.207747 (1,11,10) 0.726236
(1,11,1): (1,10,1) -0.316750 (1,11,2) 5.506568E-02 (1,12,1) 0.141994
(1,11,2): (1,10,2) -0.537191 (1,11,1) -5.506568E-02 (1,11,3) 0.173844 (1,12,2) 0.210935
(1,11,3): (1,10,3) -0.993427 (1,11,2) -0.173844 (1,11,4) 0.493295 (1,12,3) 0.301799
(1,11,4): (1,10,4) -1.37918 (1,11,3) -0.493295 (1,11,5) 1.05470 (1,12,4) 0.233214
(1,11,5): (1,10,5) 0.687332 (1,11,4) -1.05470 (1,11,6) -9.970527E-02 (1,12,5) -0.318679
(1,11,6): (1,10,6) -0.971452 (1,11,5) 9.970527E-02 (1,11,7) 0.119294 (1,12,6) -0.104287
(1,11,7): (1,10,7) 0.677031 (1,11,6) -0.119294 (1,11,8) -1.03058 (1,12,7) -0.313768
(1,11,8): (1,10,8) -1.41003 (1,11,7) 1.03058 (1,11,9) -0.462480 (1,12,8) 0.248260
(1,11,9): (1,10,9) -1.07288 (1,11,8) 0.462480 (1,11,10) -0.136135 (1,12,9) 0.339632
(1,11,10): (1,10,10) -0.726236 (1,11,9) 0.136135 (1,12,10) 0.293934
(1,12,1): (1,11,1) -0.141994 (1,12,2) 0.123947 (1,13,1) -4.459715E-03
(1,12,2): (1,11,2) -0.210935 (1,12,1) -0.123947 (1,12,3) 0.264675 (1,13,2) -1.019805E-02
(1,12,3): (1,11,3) -0.301799 (1,12,2) -0.264675 (1,12,4) 0.424579 (1,13,3) -4.695454E-02
(1,12,4): (1,11,4) -0.233214 (1,12,3) -0.424579 (1,12,5) 0.499426 (1,13,4) -0.166927
(1,12,5): (1,11,5) 0.318679 (1,12,4) -0.499426 (1,12,6) 0.114363 (1,13,5) -0.379203
(1,12,6): (1,11,6) 0.104287 (1,12,5) -0.114363 (1,12,7) -8.987495E-02 (1,13,6) -0.389781
(1,12,7): (1,11,7) 0.313768 (1,12,6) 8.987495E-02 (1,12,8) -0.465272 (1,13,7) -0.380002
(1,12,8): (1,11,8) -0.248260 (1,12,7) 0.465272 (1,12,9) -0.370997 (1,13,8) -0.167937
(1,12,9): (1,11,9) -0.339632 (1,12,8) 0.370997 (1,12,10) -0.181762 (1,13,9) -4.704978E-02
(1,12,10): (1,11,10) -0.293934 (1,12,9) 0.181762 (1,13,10) -8.961461E-03
(1,13,1): (1,12,1) 4.459715E-03 (1,13,2) 0.118202 (1,14,1) -6.483137E-02
(1,13,2): (1,12,2) 1.019805E-02 (1,13,1) -0.118202 (1,13,3) 0.227840 (1,14,2) -9.049081E-02
(1,13,3): (1,12,3) 4.695454E-02 (1,13,2) -0.227840 (1,13,4) 0.304305 (1,14,3) -0.148487
(1,13,4): (1,12,4) 0.166927 (1,13,3) -0.304305 (1,13,5) 0.286905 (1,14,4) -0.243804
(1,13,5): (1,12,5) 0.379203 (1,13,4) -0.286905 (1,13,6) 0.103811 (1,14,5) -0.350433
(1,13,6): (1,12,6) 0.389781 (1,13,5) -0.103811 (1,13,7) -8.012254E-02 (1,14,6) -0.381287
(1,13,7): (1,12,7) 0.380002 (1,13,6) 8.012254E-02 (1,13,8) -0.253034 (1,14,7) -0.353871
(1,13,8): (1,12,8) 0.167937 (1,13,7) 0.253034 (1,13,9) -0.249871 (1,14,8) -0.252147
(1,13,9): (1,12,9) 4.704978E-02 (1,13,8) 0.249871 (1,13,10) -0.143623 (1,14,9) -0.165101
(1,13,10): (1,12,10) 8.961461E-03 (1,13,9) 0.143623 (1,14,10) -0.121625
(1,14,1): (1,13,1) 6.483137E-02 (1,14,2) 9.253605E-02 (1,15,1) -5.143091E-02
(1,14,2): (1,13,2) 9.049081E-02 (1,14,1) -9.253605E-02 (1,14,3) 0.169798 (1,15,2) -6.947771E-02
(1,14,3): (1,13,3) 0.148487 (1,14,2) -0.169798 (1,14,4) 0.208932 (1,15,3) -0.105792
(1,14,4): (1,13,4) 0.243804 (1,14,3) -0.208932 (1,14,5) 0.180341 (1,15,4) -0.156438
(1,14,5): (1,13,5) 0.350433 (1,14,4) -0.180341 (1,14,6) 7.303980E-02 (1,15,5) -0.204972
(1,14,6): (1,13,6) 0.381287 (1,14,5) -7.303980E-02 (1,14,7) -5.278675E-02 (1,15,6) -0.222895
(1,14,7): (1,13,7) 0.353871 (1,14,6) 5.278675E-02 (1,14,8) -0.151409 (1,15,7) -0.207668
(1,14,8): (1,13,8) 0.252147 (1,14,7) 0.151409 (1,14,9) -0.162826 (1,15,8) -0.163124
(1,14,9): (1,13,9) 0.165101 (1,14,8) 0.162826 (1,14,10) -0.100157 (1,15,9) -0.119299
(1,14,10): (1,13,10) 0.121625 (1,14,9) 0.100157 (1,15,10) -9.449311E-02
(1,15,1): (1,14,1) 5.143091E-02 (1,15,2) 7.448514E-02
(1,15,2): (1,14,2) 6.947771E-02 (1,15,1) -7.448514E-02 (1,15,3) 0.133461
(1,15,3): (1,14,3) 0.105792 (1,15,2) -0.133461 (1,15,4) 0.158260
(1,15,4): (1,14,4) 0.156438 (1,15,3) -0.158260 (1,15,5) 0.131818
(1,15,5): (1,14,5) 0.204972 (1,15,4) -0.131818 (1,15,6) 5.514364E-02
(1,15,6): (1,14,6) 0.222895 (1,15,5) -5.514364E-02 (1,15,7) -3.758579E-02
(1,15,7): (1,14,7) 0.207668 (1,15,6) 3.758579E-02 (1,15,8) -0.106889
(1,15,8): (1,14,8) 0.163124 (1,15,7) 0.106889 (1,15,9) -0.119001
(1,15,9): (1,14,9) 0.119299 (1,15,8) 0.119001 (1,15,10) -7.535546E-02
(1,15,10): (1,14,10) 9.449311E-02 (1,15,9) 7.535546E-02

 WEL PACKAGE (WEL-1) FLOW RATES   PERIOD      2   STEP       99
 ----------------------------------------------------------------------------------------
   NUMBER   CELLID                    RATE       NAME                                    
 ----------------------------------------------------------------------------------------
     1      (1,8,6)              -199.07391      WEL                                     
 ----------------------------------------------------------------------------------------




 API PACKAGE (MAR) FLOW RATES   PERIOD      2   STEP       99
 -----------------------------------------------
   NUMBER   CELLID                    RATE      
 -----------------------------------------------
     1      (1,6,5)               46.666667     
     2      (1,6,6)               46.666667     
     3      (1,6,7)               46.666667     
     4      (1,10,5)              19.691304     
     5      (1,10,6)              19.691304     
     6      (1,10,7)              19.691304     
 -----------------------------------------------



1
  HEAD IN LAYER   1 AT END OF TIME STEP  99 IN STRESS PERIOD    2
  ---------------------------------------------------------------------------

            1           2           3           4           5           6           7           8           9          10
 ........................................................................................................................
   1   4.7358E-02  6.1599E-02  8.7798E-02  0.1200      0.1476      0.1591      0.1502      0.1263      0.1005      8.4515E-02
   2   6.0340E-02  8.0697E-02  0.1194      0.1691      0.2139      0.2324      0.2170      0.1770      0.1354      0.1105    
   3   8.2070E-02  0.1144      0.1791      0.2691      0.3573      0.3921      0.3613      0.2793      0.2006      0.1560    
   4   0.1024      0.1501      0.2534      0.4158      0.6008      0.6656      0.6054      0.4279      0.2796      0.2033    
   5   0.1045      0.1623      0.3035      0.5771      0.9954       1.094      0.9998      0.5887      0.3297      0.2175    
   6   7.1844E-02  0.1143      0.2418      0.6067       1.695       1.714       1.698      0.6148      0.2595      0.1512    
   7   8.3574E-03 -9.0066E-03 -5.9880E-02 -0.1876     -0.5184      -1.601     -0.5167     -0.1846     -5.6826E-02 -1.0682E-02
   8  -4.0287E-02 -0.1058     -0.3041     -0.8573      -2.517      -8.672      -2.517     -0.8587     -0.3128     -0.1377    
   9  -3.8272E-02 -9.2281E-02 -0.2367     -0.5568      -1.207      -2.414      -1.207     -0.5583     -0.2453     -0.1220    
  10  -3.4467E-03 -1.9911E-02 -4.7916E-02 -3.6790E-02  0.2701      9.8062E-02  0.2710     -3.5484E-02 -4.8371E-02 -2.7539E-02
  11   2.8139E-02  3.3628E-02  5.0924E-02  9.9766E-02  0.2031      0.1934      0.2051      0.1041      5.8295E-02  4.4761E-02
  12   4.2279E-02  5.4607E-02  8.0862E-02  0.1228      0.1719      0.1831      0.1743      0.1286      9.1949E-02  7.3938E-02
  13   4.1835E-02  5.3592E-02  7.6204E-02  0.1063      0.1346      0.1449      0.1370      0.1120      8.7287E-02  7.3049E-02
  14   3.5379E-02  4.4591E-02  6.1468E-02  8.2190E-02  0.1000      0.1073      0.1020      8.7062E-02  7.0920E-02  6.0975E-02
  15   3.0254E-02  3.7674E-02  5.0953E-02  6.6674E-02  7.9752E-02  8.5219E-02  8.1493E-02  7.0890E-02  5.9074E-02  5.1583E-02

 HEAD WILL BE SAVED ON UNIT 1043 AT END OF TIME STEP   99, STRESS PERIOD    2


  VOLUME BUDGET FOR ENTIRE MODEL AT END OF TIME STEP   99, STRESS PERIOD   2
  ---------------------------------------------------------------------------------------------------

     CUMULATIVE VOLUME      L**3       RATES FOR THIS TIME STEP      L**3/T          PACKAGE NAME    
     ------------------                 ------------------------                     ----------------

           IN:                                      IN:
           ---                                      ---
              STO-SS =          28.4398                STO-SS =       1.2066E-02     STORAGE                          
              STO-SY =       66422.3048                STO-SY =          24.8881     STORAGE                          
                 WEL =           0.0000                   WEL =           0.0000     WEL-1                            
                 API =      217932.2500                   API =         199.0739     MAR                              
                 CHD =       2.8247E-08                   CHD =           0.0000     CHD_0                            

            TOTAL IN =      284382.9946              TOTAL IN =         223.9741

          OUT:                                     OUT:
          ----                                     ----
              STO-SS =          34.4116                STO-SS =       1.2797E-02     STORAGE                          
              STO-SY =       66416.3331                STO-SY =          24.8874     STORAGE                          
                 WEL =      217932.2499                   WEL =         199.0739     WEL-1                            
                 API =           0.0000                   API =           0.0000     MAR                              
                 CHD =       3.0388E-08                   CHD =           0.0000     CHD_0                            

           TOTAL OUT =      284382.9946             TOTAL OUT =         223.9741

            IN - OUT =       4.9155E-06              IN - OUT =       7.9747E-09

 PERCENT DISCREPANCY =           0.00     PERCENT DISCREPANCY =           0.00




         TIME SUMMARY AT END OF TIME STEP   99 IN STRESS PERIOD    2
                    SECONDS     MINUTES      HOURS       DAYS        YEARS
                    -----------------------------------------------------------
   TIME STEP LENGTH 8.64000E+05  14400.      240.00      10.000     2.73785E-02
 STRESS PERIOD TIME 8.55360E+07 1.42560E+06  23760.      990.00      2.7105    
         TOTAL TIME 8.56224E+07 1.42704E+06  23784.      991.00      2.7132    


end timestep


start timestep kper="2" kstp="100" mode="normal"

 UBDSV1 SAVING           STO-SS ON UNIT   1042 AT TIME STEP    100, STRESS PERIOD      2
 UBDSV1 SAVING           STO-SY ON UNIT   1042 AT TIME STEP    100, STRESS PERIOD      2
 UBDSV1 SAVING     FLOW-JA-FACE ON UNIT   1042 AT TIME STEP    100, STRESS PERIOD      2
 UBDSV06 SAVING       DATA-SPDIS IN MODEL GWF              PACKAGE NPF             CONNECTED TO MODEL GWF              PACKAGE NPF              ON UNIT   1042 AT TIME STEP    100, STRESS PERIOD      2
 UBDSV06 SAVING              WEL IN MODEL GWF              PACKAGE GWF             CONNECTED TO MODEL GWF              PACKAGE WEL-1            ON UNIT   1042 AT TIME STEP    100, STRESS PERIOD      2
 UBDSV06 SAVING              API IN MODEL GWF              PACKAGE GWF             CONNECTED TO MODEL GWF              PACKAGE MAR              ON UNIT   1042 AT TIME STEP    100, STRESS PERIOD      2
 UBDSV06 SAVING              CHD IN MODEL GWF              PACKAGE GWF             CONNECTED TO MODEL GWF              PACKAGE CHD_0            ON UNIT   1042 AT TIME STEP    100, STRESS PERIOD      2

    CALCULATED INTERCELL FLOW FOR PERIOD 2 STEP 100
(1,1,1): (1,1,2) 0.145281 (1,2,1) 0.131572
(1,1,2): (1,1,1) -0.145281 (1,1,3) 0.267684 (1,2,2) 0.193555
(1,1,3): (1,1,2) -0.267684 (1,1,4) 0.329333 (1,2,3) 0.320549
(1,1,4): (1,1,3) -0.329333 (1,1,5) 0.283600 (1,2,4) 0.501079
(1,1,5): (1,1,4) -0.283600 (1,1,6) 0.118396 (1,2,5) 0.678726
(1,1,6): (1,1,5) -0.118396 (1,1,7) -9.158201E-02 (1,2,6) 0.750697
(1,1,7): (1,1,6) 9.158201E-02 (1,1,8) -0.243972 (1,2,7) 0.684775
(1,1,8): (1,1,7) 0.243972 (1,1,9) -0.263292 (1,2,8) 0.516946
(1,1,9): (1,1,8) 0.263292 (1,1,10) -0.163141 (1,2,9) 0.355337
(1,1,10): (1,1,9) 0.163141 (1,2,10) 0.264197
(1,2,1): (1,1,1) -0.131572 (1,2,2) 0.207273 (1,3,1) 0.220013
(1,2,2): (1,1,2) -0.193555 (1,2,1) -0.207273 (1,2,3) 0.394769 (1,3,2) 0.341897
(1,2,3): (1,1,3) -0.320549 (1,2,2) -0.394769 (1,2,4) 0.509878 (1,3,3) 0.608825
(1,2,4): (1,1,4) -0.501079 (1,2,3) -0.509878 (1,2,5) 0.460880 (1,3,4) 1.02739
(1,2,5): (1,1,5) -0.678726 (1,2,4) -0.460880 (1,2,6) 0.189989 (1,3,5) 1.48529
(1,2,6): (1,1,6) -0.750697 (1,2,5) -0.189989 (1,2,7) -0.157136 (1,3,6) 1.66109
(1,2,7): (1,1,7) -0.684775 (1,2,6) 0.157136 (1,2,8) -0.411368 (1,3,7) 1.49485
(1,2,8): (1,1,8) -0.516946 (1,2,7) 0.411368 (1,2,9) -0.424758 (1,3,8) 1.05272
(1,2,9): (1,1,9) -0.355337 (1,2,8) 0.424758 (1,2,10) -0.254192 (1,3,9) 0.665914
(1,2,10): (1,1,10) -0.264197 (1,2,9) 0.254192 (1,3,10) 0.463330
(1,3,1): (1,2,1) -0.220013 (1,3,2) 0.329142 (1,4,1) 0.204307
(1,3,2): (1,2,2) -0.341897 (1,3,1) -0.329142 (1,3,3) 0.661831 (1,4,2) 0.361748
(1,3,3): (1,2,3) -0.608825 (1,3,2) -0.661831 (1,3,4) 0.928058 (1,4,3) 0.760169
(1,3,4): (1,2,4) -1.02739 (1,3,3) -0.928058 (1,3,5) 0.916394 (1,4,4) 1.52639
(1,3,5): (1,2,5) -1.48529 (1,3,4) -0.916394 (1,3,6) 0.363743 (1,4,5) 2.57921
(1,3,6): (1,2,6) -1.66109 (1,3,5) -0.363743 (1,3,7) -0.321369 (1,4,6) 2.91385
(1,3,7): (1,2,7) -1.49485 (1,3,6) 0.321369 (1,3,8) -0.850905 (1,4,7) 2.58706
(1,3,8): (1,2,8) -1.05272 (1,3,7) 0.850905 (1,3,9) -0.810686 (1,4,8) 1.54734
(1,3,9): (1,2,9) -0.665914 (1,3,8) 0.810686 (1,3,10) -0.456373 (1,4,9) 0.810435
(1,3,10): (1,2,10) -0.463330 (1,3,9) 0.456373 (1,4,10) 0.480868
(1,4,1): (1,3,1) -0.204307 (1,4,2) 0.486772 (1,5,1) 1.812299E-02
(1,4,2): (1,3,2) -0.361748 (1,4,1) -0.486772 (1,4,3) 1.06138 (1,5,2) 0.119930
(1,4,3): (1,3,3) -0.760169 (1,4,2) -1.06138 (1,4,4) 1.69546 (1,5,3) 0.511641
(1,4,4): (1,3,4) -1.52639 (1,4,3) -1.69546 (1,4,5) 1.96359 (1,5,4) 1.69862
(1,4,5): (1,3,5) -2.57921 (1,4,4) -1.96359 (1,4,6) 0.692158 (1,5,5) 4.33118
(1,4,6): (1,3,6) -2.91385 (1,4,5) -0.692158 (1,4,7) -0.641926 (1,5,6) 4.75050
(1,4,7): (1,3,7) -2.58706 (1,4,6) 0.641926 (1,4,8) -1.88429 (1,5,7) 4.33053
(1,4,8): (1,3,8) -1.54734 (1,4,7) 1.88429 (1,4,9) -1.54759 (1,5,8) 1.69627
(1,4,9): (1,3,9) -0.810435 (1,4,8) 1.54759 (1,4,10) -0.785864 (1,5,9) 0.510537
(1,4,10): (1,3,10) -0.480868 (1,4,9) 0.785864 (1,5,10) 0.139335
(1,5,1): (1,4,1) -1.812299E-02 (1,5,2) 0.589041 (1,6,1) -0.335636
(1,5,2): (1,4,2) -0.119930 (1,5,1) -0.589041 (1,5,3) 1.45656 (1,6,2) -0.494871
(1,5,3): (1,4,3) -0.511641 (1,5,2) -1.45656 (1,5,4) 2.89498 (1,6,3) -0.645148
(1,5,4): (1,4,4) -1.69862 (1,5,3) -2.89498 (1,5,5) 4.60189 (1,6,4) 0.303489
(1,5,5): (1,4,5) -4.33118 (1,5,4) -4.60189 (1,5,6) 1.10021 (1,6,5) 8.16381
(1,5,6): (1,4,6) -4.75050 (1,5,5) -1.10021 (1,5,7) -1.05039 (1,6,6) 7.24962
(1,5,7): (1,4,7) -4.33053 (1,5,6) 1.05039 (1,5,8) -4.52263 (1,6,7) 8.15015
(1,5,8): (1,4,8) -1.69627 (1,5,7) 4.52263 (1,5,9) -2.74429 (1,6,8) 0.265280
(1,5,9): (1,4,9) -0.510537 (1,5,8) 2.74429 (1,5,10) -1.15931 (1,6,9) -0.734990
(1,5,10): (1,4,10) -0.139335 (1,5,9) 1.15931 (1,6,10) -0.686987
(1,6,1): (1,5,1) 0.335636 (1,6,2) 0.429663 (1,7,1) -0.646545
(1,6,2): (1,5,2) 0.494871 (1,6,1) -0.429663 (1,6,3) 1.30519 (1,7,2) -1.25616
(1,6,3): (1,5,3) 0.645148 (1,6,2) -1.30519 (1,6,4) 3.87037 (1,7,3) -3.10052
(1,6,4): (1,5,4) -0.303489 (1,6,3) -3.87037 (1,6,5) 12.7232 (1,7,4) -8.43722
(1,6,5): (1,5,5) -8.16381 (1,6,4) -12.7232 (1,6,6) 0.233467 (1,7,5) -25.8925
(1,6,6): (1,5,6) -7.24962 (1,6,5) -0.233467 (1,6,7) -0.196749 (1,7,6) -38.8450
(1,6,7): (1,5,7) -8.15015 (1,6,6) 0.196749 (1,6,8) -12.6668 (1,7,7) -25.9164
(1,6,8): (1,5,8) -0.265280 (1,6,7) 12.6668 (1,6,9) -3.77125 (1,7,8) -8.49901
(1,6,9): (1,5,9) 0.734990 (1,6,8) 3.77125 (1,6,10) -1.11115 (1,7,9) -3.25838
(1,6,10): (1,5,10) 0.686987 (1,6,9) 1.11115 (1,7,10) -1.65505
(1,7,1): (1,6,1) 0.646545 (1,7,2) -0.175360 (1,8,1) -0.493027
(1,7,2): (1,6,2) 1.25616 (1,7,1) 0.175360 (1,7,3) -0.510482 (1,8,2) -0.974410
(1,7,3): (1,6,3) 3.10052 (1,7,2) 0.510482 (1,7,4) -1.27053 (1,8,3) -2.43832
(1,7,4): (1,6,4) 8.43722 (1,7,3) 1.27053 (1,7,5) -3.24407 (1,8,4) -6.58460
(1,7,5): (1,6,5) 25.8925 (1,7,4) 3.24407 (1,7,6) -10.2580 (1,8,5) -18.9670
(1,7,6): (1,6,6) 38.8450 (1,7,5) 10.2580 (1,7,7) 10.2757 (1,8,6) -59.3960
(1,7,7): (1,6,7) 25.9164 (1,7,6) -10.2757 (1,7,8) 3.25841 (1,8,7) -18.9844
(1,7,8): (1,6,8) 8.49901 (1,7,7) -3.25841 (1,7,9) 1.27059 (1,8,8) -6.63068
(1,7,9): (1,6,9) 3.25838 (1,7,8) -1.27059 (1,7,10) 0.461976 (1,8,9) -2.55726
(1,7,10): (1,6,10) 1.65505 (1,7,9) -0.461976 (1,8,10) -1.27960
(1,8,1): (1,7,1) 0.493027 (1,8,2) -0.655211 (1,9,1) 1.682524E-02
(1,8,2): (1,7,2) 0.974410 (1,8,1) 0.655211 (1,8,3) -1.96753 (1,9,2) 0.128868
(1,8,3): (1,7,3) 2.43832 (1,8,2) 1.96753 (1,8,4) -5.36678 (1,9,3) 0.650241
(1,8,4): (1,7,4) 6.58460 (1,8,3) 5.36678 (1,8,5) -15.1738 (1,9,4) 2.82463
(1,8,5): (1,7,5) 18.9670 (1,8,4) 15.1738 (1,8,6) -46.0289 (1,9,5) 11.4998
(1,8,6): (1,7,6) 59.3960 (1,8,5) 46.0289 (1,8,7) 46.0317 (1,9,6) 47.4111
(1,8,7): (1,7,7) 18.9844 (1,8,6) -46.0317 (1,8,8) 15.1563 (1,9,7) 11.4987
(1,8,8): (1,7,8) 6.63068 (1,8,7) -15.1563 (1,8,9) 5.28987 (1,9,8) 2.82204
(1,8,9): (1,7,9) 2.55726 (1,8,8) -5.28987 (1,8,10) 1.72906 (1,9,9) 0.649453
(1,8,10): (1,7,10) 1.27960 (1,8,9) -1.72906 (1,9,10) 0.148765
(1,9,1): (1,8,1) -1.682524E-02 (1,9,2) -0.542571 (1,10,1) 0.348734
(1,9,2): (1,8,2) -0.128868 (1,9,1) 0.542571 (1,9,3) -1.43907 (1,10,2) 0.722305
(1,9,3): (1,8,3) -0.650241 (1,9,2) 1.43907 (1,9,4) -3.13322 (1,10,3) 1.87744
(1,9,4): (1,8,4) -2.82463 (1,9,3) 3.13322 (1,9,5) -6.14382 (1,10,4) 5.17413
(1,9,5): (1,8,5) -11.4998 (1,9,4) 6.14382 (1,9,6) -10.6153 (1,10,5) 15.1470
(1,9,6): (1,8,6) -47.4111 (1,9,5) 10.6153 (1,9,7) 10.6159 (1,10,6) 25.3418
(1,9,7): (1,8,7) -11.4987 (1,9,6) -10.6159 (1,9,8) 6.12637 (1,10,7) 15.1568
(1,9,8): (1,8,8) -2.82204 (1,9,7) -6.12637 (1,9,9) 3.05984 (1,10,8) 5.20339
(1,9,9): (1,8,9) -0.649453 (1,9,8) -3.05984 (1,9,10) 1.22277 (1,10,9) 1.95853
(1,9,10): (1,8,10) -0.148765 (1,9,9) -1.22277 (1,10,10) 0.942166
(1,10,1): (1,9,1) -0.348734 (1,10,2) -0.169672 (1,11,1) 0.320489
(1,10,2): (1,9,2) -0.722305 (1,10,1) 0.169672 (1,10,3) -0.288984 (1,11,2) 0.541671
(1,10,3): (1,9,3) -1.87744 (1,10,2) 0.288984 (1,10,4) 9.788475E-02 (1,11,3) 0.999263
(1,10,4): (1,9,4) -5.17413 (1,10,3) -9.788475E-02 (1,10,5) 3.13369 (1,11,4) 1.38742
(1,10,5): (1,9,5) -15.1470 (1,10,4) -3.13369 (1,10,6) -1.76983 (1,11,5) -0.672239
(1,10,6): (1,9,6) -25.3418 (1,10,5) 1.76983 (1,10,7) 1.77904 (1,11,6) 0.986398
(1,10,7): (1,9,7) -15.1568 (1,10,6) -1.77904 (1,10,8) -3.13065 (1,11,7) -0.661726
(1,10,8): (1,9,8) -5.20339 (1,10,7) 3.13065 (1,10,9) -0.117242 (1,11,8) 1.41878
(1,10,9): (1,9,9) -1.95853 (1,10,8) 0.117242 (1,10,10) 0.213882 (1,11,9) 1.07972
(1,10,10): (1,9,10) -0.942166 (1,10,9) -0.213882 (1,11,10) 0.732381
(1,11,1): (1,10,1) -0.320489 (1,11,2) 5.072055E-02 (1,12,1) 0.146847
(1,11,2): (1,10,2) -0.541671 (1,11,1) -5.072055E-02 (1,11,3) 0.165677 (1,12,2) 0.217244
(1,11,3): (1,10,3) -0.999263 (1,11,2) -0.165677 (1,11,4) 0.482641 (1,12,3) 0.310853
(1,11,4): (1,10,4) -1.38742 (1,11,3) -0.482641 (1,11,5) 1.04426 (1,12,4) 0.246023
(1,11,5): (1,10,5) 0.672239 (1,11,4) -1.04426 (1,11,6) -0.103214 (1,12,5) -0.301600
(1,11,6): (1,10,6) -0.986398 (1,11,5) 0.103214 (1,11,7) 0.122735 (1,12,6) -8.597044E-02
(1,11,7): (1,10,7) 0.661726 (1,11,6) -0.122735 (1,11,8) -1.02058 (1,12,7) -0.296439
(1,11,8): (1,10,8) -1.41878 (1,11,7) 1.02058 (1,11,9) -0.453139 (1,12,8) 0.261709
(1,11,9): (1,10,9) -1.07972 (1,11,8) 0.453139 (1,11,10) -0.130671 (1,12,9) 0.350002
(1,11,10): (1,10,10) -0.732381 (1,11,9) 0.130671 (1,12,10) 0.302630
(1,12,1): (1,11,1) -0.146847 (1,12,2) 0.121051 (1,13,1) -3.953081E-04
(1,12,2): (1,11,2) -0.217244 (1,12,1) -0.121051 (1,12,3) 0.259239 (1,13,2) -4.682452E-03
(1,12,3): (1,11,3) -0.310853 (1,12,2) -0.259239 (1,12,4) 0.417701 (1,13,3) -3.876207E-02
(1,12,4): (1,11,4) -0.246023 (1,12,3) -0.417701 (1,12,5) 0.493303 (1,13,4) -0.155362
(1,12,5): (1,11,5) 0.301600 (1,12,4) -0.493303 (1,12,6) 0.112125 (1,13,5) -0.364543
(1,12,6): (1,11,6) 8.597044E-02 (1,12,5) -0.112125 (1,12,7) -8.745701E-02 (1,13,6) -0.373952
(1,12,7): (1,11,7) 0.296439 (1,12,6) 8.745701E-02 (1,12,8) -0.459206 (1,13,7) -0.365152
(1,12,8): (1,11,8) -0.261709 (1,12,7) 0.459206 (1,12,9) -0.364755 (1,13,8) -0.155857
(1,12,9): (1,11,9) -0.350002 (1,12,8) 0.364755 (1,12,10) -0.177963 (1,13,9) -3.773642E-02
(1,12,10): (1,11,10) -0.302630 (1,12,9) 0.177963 (1,13,10) -1.306648E-03
(1,13,1): (1,12,1) 3.953081E-04 (1,13,2) 0.116759 (1,14,1) -6.235879E-02
(1,13,2): (1,12,2) 4.682452E-03 (1,13,1) -0.116759 (1,13,3) 0.225085 (1,14,2) -8.698296E-02
(1,13,3): (1,12,3) 3.876207E-02 (1,13,2) -0.225085 (1,13,4) 0.300803 (1,14,3) -0.143087
(1,13,4): (1,12,4) 0.155362 (1,13,3) -0.300803 (1,13,5) 0.283862 (1,14,4) -0.236092
(1,13,5): (1,12,5) 0.364543 (1,13,4) -0.283862 (1,13,6) 0.102740 (1,14,5) -0.340729
(1,13,6): (1,12,6) 0.373952 (1,13,5) -0.102740 (1,13,7) -7.868046E-02 (1,14,6) -0.370795
(1,13,7): (1,12,7) 0.365152 (1,13,6) 7.868046E-02 (1,13,8) -0.249722 (1,14,7) -0.344065
(1,13,8): (1,12,8) 0.155857 (1,13,7) 0.249722 (1,13,9) -0.246394 (1,14,8) -0.244137
(1,13,9): (1,12,9) 3.773642E-02 (1,13,8) 0.246394 (1,13,10) -0.141483 (1,14,9) -0.159005
(1,13,10): (1,12,10) 1.306648E-03 (1,13,9) 0.141483 (1,14,10) -0.116716
(1,14,1): (1,13,1) 6.235879E-02 (1,14,2) 9.212718E-02 (1,15,1) -5.038674E-02
(1,14,2): (1,13,2) 8.698296E-02 (1,14,1) -9.212718E-02 (1,14,3) 0.168936 (1,15,2) -6.792488E-02
(1,14,3): (1,13,3) 0.143087 (1,14,2) -0.168936 (1,14,4) 0.207740 (1,15,3) -0.103312
(1,14,4): (1,13,4) 0.236092 (1,14,3) -0.207740 (1,14,5) 0.179283 (1,15,4) -0.152837
(1,14,5): (1,13,5) 0.340729 (1,14,4) -0.179283 (1,14,6) 7.275150E-02 (1,15,5) -0.200424
(1,14,6): (1,13,6) 0.370795 (1,14,5) -7.275150E-02 (1,14,7) -5.202599E-02 (1,15,6) -0.217971
(1,14,7): (1,13,7) 0.344065 (1,14,6) 5.202599E-02 (1,14,8) -0.149885 (1,15,7) -0.203084
(1,14,8): (1,13,8) 0.244137 (1,14,7) 0.149885 (1,14,9) -0.161260 (1,15,8) -0.159404
(1,14,9): (1,13,9) 0.159005 (1,14,8) 0.161260 (1,14,10) -9.920189E-02 (1,15,9) -0.116519
(1,14,10): (1,13,10) 0.116716 (1,14,9) 9.920189E-02 (1,15,10) -9.230270E-02
(1,15,1): (1,14,1) 5.038674E-02 (1,15,2) 7.458485E-02
(1,15,2): (1,14,2) 6.792488E-02 (1,15,1) -7.458485E-02 (1,15,3) 0.133525
(1,15,3): (1,14,3) 0.103312 (1,15,2) -0.133525 (1,15,4) 0.158189
(1,15,4): (1,14,4) 0.152837 (1,15,3) -0.158189 (1,15,5) 0.131705
(1,15,5): (1,14,5) 0.200424 (1,15,4) -0.131705 (1,15,6) 5.522928E-02
(1,15,6): (1,14,6) 0.217971 (1,15,5) -5.522928E-02 (1,15,7) -3.716277E-02
(1,15,7): (1,14,7) 0.203084 (1,15,6) 3.716277E-02 (1,15,8) -0.106229
(1,15,8): (1,14,8) 0.159404 (1,15,7) 0.106229 (1,15,9) -0.118373
(1,15,9): (1,14,9) 0.116519 (1,15,8) 0.118373 (1,15,10) -7.498990E-02
(1,15,10): (1,14,10) 9.230270E-02 (1,15,9) 7.498990E-02

 WEL PACKAGE (WEL-1) FLOW RATES   PERIOD      2   STEP      100
 ----------------------------------------------------------------------------------------
   NUMBER   CELLID                    RATE       NAME                                    
 ----------------------------------------------------------------------------------------
     1      (1,8,6)              -198.97604      WEL                                     
 ----------------------------------------------------------------------------------------




 API PACKAGE (MAR) FLOW RATES   PERIOD      2   STEP      100
 -----------------------------------------------
   NUMBER   CELLID                    RATE      
 -----------------------------------------------
     1      (1,6,5)               46.666667     
     2      (1,6,6)               46.666667     
     3      (1,6,7)               46.666667     
     4      (1,10,5)              19.658681     
     5      (1,10,6)              19.658681     
     6      (1,10,7)              19.658681     
 -----------------------------------------------



1
  HEAD IN LAYER   1 AT END OF TIME STEP 100 IN STRESS PERIOD    2
  ---------------------------------------------------------------------------

            1           2           3           4           5           6           7           8           9          10
 ........................................................................................................................
   1   4.8741E-02  6.3178E-02  8.9708E-02  0.1222      0.1502      0.1618      0.1528      0.1288      0.1028      8.6651E-02
   2   6.1818E-02  8.2375E-02  0.1214      0.1715      0.2166      0.2352      0.2198      0.1796      0.1378      0.1128    
   3   8.3636E-02  0.1162      0.1812      0.2715      0.3600      0.3950      0.3641      0.2820      0.2031      0.1584    
   4   0.1039      0.1518      0.2553      0.4180      0.6032      0.6681      0.6079      0.4303      0.2819      0.2055    
   5   0.1057      0.1636      0.3050      0.5786      0.9971       1.096       1.002      0.5905      0.3314      0.2191    
   6   7.2438E-02  0.1149      0.2423      0.6072       1.695       1.715       1.698      0.6155      0.2602      0.1519    
   7   8.2482E-03 -9.2733E-03 -6.0369E-02 -0.1882     -0.5188      -1.601     -0.5171     -0.1852     -5.7363E-02 -1.1114E-02
   8  -4.1014E-02 -0.1068     -0.3057     -0.8593      -2.519      -8.672      -2.519     -0.8607     -0.3146     -0.1392    
   9  -3.9325E-02 -9.3796E-02 -0.2391     -0.5601      -1.211      -2.419      -1.211     -0.5617     -0.2480     -0.1242    
  10  -4.4358E-03 -2.1410E-02 -5.0371E-02 -4.0543E-02  0.2647      9.2326E-02  0.2656     -3.9338E-02 -5.1108E-02 -2.9657E-02
  11   2.7525E-02  3.2581E-02  4.9068E-02  9.6869E-02  0.1993      0.1891      0.2012      0.1011      5.6260E-02  4.3266E-02
  12   4.2148E-02  5.4188E-02  7.9906E-02  0.1212      0.1697      0.1807      0.1721      0.1270      9.0945E-02  7.3309E-02
  13   4.2109E-02  5.3722E-02  7.6061E-02  0.1058      0.1338      0.1440      0.1362      0.1116      8.7205E-02  7.3179E-02
  14   3.5899E-02  4.5071E-02  6.1860E-02  8.2464E-02  0.1002      0.1074      0.1023      8.7428E-02  7.1442E-02  6.1592E-02
  15   3.0878E-02  3.8308E-02  5.1592E-02  6.7306E-02  8.0371E-02  8.5847E-02  8.2162E-02  7.1626E-02  5.9873E-02  5.2419E-02

 HEAD WILL BE SAVED ON UNIT 1043 AT END OF TIME STEP  100, STRESS PERIOD    2


  VOLUME BUDGET FOR ENTIRE MODEL AT END OF TIME STEP  100, STRESS PERIOD   2
  ---------------------------------------------------------------------------------------------------

     CUMULATIVE VOLUME      L**3       RATES FOR THIS TIME STEP      L**3/T          PACKAGE NAME    
     ------------------                 ------------------------                     ----------------

           IN:                                      IN:
           ---                                      ---
              STO-SS =          28.5595                STO-SS =       1.1972E-02     STORAGE                          
              STO-SY =       66669.2253                STO-SY =          24.6921     STORAGE                          
                 WEL =           0.0000                   WEL =           0.0000     WEL-1                            
                 API =      219922.0104                   API =         198.9760     MAR                              
                 CHD =       2.8247E-08                   CHD =           0.0000     CHD_0                            

            TOTAL IN =      286619.7953              TOTAL IN =         223.6801

          OUT:                                     OUT:
          ----                                     ----
              STO-SS =          34.5385                STO-SS =       1.2698E-02     STORAGE                          
              STO-SY =       66663.2464                STO-SY =          24.6913     STORAGE                          
                 WEL =      219922.0104                   WEL =         198.9760     WEL-1                            
                 API =           0.0000                   API =           0.0000     MAR                              
                 CHD =       3.0388E-08                   CHD =           0.0000     CHD_0                            

           TOTAL OUT =      286619.7953             TOTAL OUT =         223.6801

            IN - OUT =       4.9933E-06              IN - OUT =       7.7852E-09

 PERCENT DISCREPANCY =           0.00     PERCENT DISCREPANCY =           0.00




         TIME SUMMARY AT END OF TIME STEP  100 IN STRESS PERIOD    2
                    SECONDS     MINUTES      HOURS       DAYS        YEARS
                    -----------------------------------------------------------
   TIME STEP LENGTH 8.64000E+05  14400.      240.00      10.000     2.73785E-02
 STRESS PERIOD TIME 8.64000E+07 1.44000E+06  24000.      1000.0      2.7379    
         TOTAL TIME 8.64864E+07 1.44144E+06  24024.      1001.0      2.7406    


end timestep

